     570
 i =      220, E =     -4745.6127001936
  C        11.8587108974       14.0536272450        5.7415362059
  C        12.4562206494       12.8906195896        5.0232322256
  C        11.7045341223       12.1717523548        4.0815335061
  C        12.2808866006       11.1095069906        3.3892106309
  C        13.6214509365       10.7397078336        3.6169616572
  C        14.3546284779       11.4432709548        4.5904182119
  C        13.7817694466       12.5082920534        5.2818862932
  C        14.2609846424        9.6490329889        2.8435791835
  C        14.2563930553        9.6569621362        1.4218771999
  C        13.7432781273       10.7591193180        0.6679845399
  C        49.1267996722       21.2332315753        5.8797110641
  C        48.5500084885       22.4011182531        5.1525483135
  C        49.3001250358       23.0685422396        4.1716864469
  C        48.7331869855       24.1076853007        3.4384968647
  C        47.4025899216       24.5091991853        3.6670024859
  C        46.6715349556       23.8601602946        4.6803256362
  C        47.2339701601       22.8152428326        5.4096786020
  C        46.7723878730       25.5869429882        2.8697509953
  C        46.7613911517       25.5573686129        1.4479888672
  C        47.2613279765       24.4422750240        0.7044967080
  C        14.8603860348        8.5706418228        0.7086343045
  C        14.8916666042        8.5970400388        3.5202452351
  C        49.1131307622       21.2033739100       10.1453495448
  C        48.5277310779       22.3647170313       10.8725370279
  C        49.2670278298       23.0255625462       11.8653096084
  C        48.6906972898       24.0601230810       12.5967621028
  C        47.3602246100       24.4567562955       12.3586403725
  C        46.6396991115       23.8116707026       11.3353140025
  C        47.2132624689       22.7757548047       10.6035423977
  C        46.7218014734       25.5317515933       13.1496619317
  C        46.7335875116       25.5281653475       14.5713646554
  C        47.2490271803       24.4289490453       15.3277362984
  C        40.6298485952       17.0982985162       15.3247549026
  C        40.6543926799       17.1440608528       12.5156873429
  C        11.8830017845       14.0865667268       10.2854410307
  C        12.4723491831       12.9107309296       10.9896870331
  C        11.7148208422       12.1775522604       11.9157897611
  C        12.2813867642       11.0950980791       12.5842410132
  C        13.6201990238       10.7213751798       12.3524169161
  C        14.3581907404       11.4369045361       11.3916086044
  C        13.7927725633       12.5180718702       10.7189020622
  C        14.2537940031        9.6246085006       13.1228123496
  C        14.2526147077        9.6446445279       14.5446514825
  C        13.7427561779       10.7535952617       15.2917302036
  C        22.5110910902        3.2440810000        5.7530953492
  C        23.2244603203        4.3497892261        5.0530396049
  C        24.2217273742        4.0704157296        4.1070800935
  C        24.8472333804        5.1104837197        3.4245033276
  C        24.4908136973        6.4516969495        3.6680765491
  C        23.5216545877        6.7227179877        4.6509970309
  C        22.8915706533        5.6844483016        5.3318892718
  C        25.0952635192        7.5586539846        2.8924510382
  C        25.0671045245        7.5521331150        1.4709882674
  C        24.3650878958        6.5527733162        0.7247559288
  C        38.3020910756       31.9299864341        5.8496904427
  C        37.5709353166       30.8408850085        5.1414984570
  C        36.6084642068       31.1452277511        4.1667369732
  C        35.9896328475       30.1252781403        3.4495296867
  C        36.3189823615       28.7761528328        3.6852505380
  C        37.2516545148       28.4791474290        4.6967243252
  C        37.8743568315       29.4978393361        5.4130579226
  C        35.7157355017       27.6853529702        2.8876147031
  C        35.7451721941       27.7025210958        1.4662754654
  C        36.4504214951       28.7058964289        0.7297488448
  C        25.6897446956        8.6223266583        0.7512560475
  C        25.6923110505        8.6333076112        3.5635923396
  C        38.3289428587       31.9624784942       10.1565266272
  C        37.6072207144       30.8903574718       10.8994332533
  C        36.6772332592       31.2009217552       11.9033741628
  C        36.0658156618       30.1837735824       12.6335651872
  C        36.3702415972       28.8307804499       12.3832740992
  C        37.2783553585       28.5301420844       11.3496335719
  C        37.8918490182       29.5438034488       10.6206578869
  C        35.7600342147       27.7328758733       13.1672019270
  C        35.7676535654       27.7269416559       14.5891927592
  C        36.4607418265       28.7178523627       15.3530306214
  C        46.1356194602       26.6208302205       15.2814898633
  C        46.0878114564       26.5800786446       12.4736008418
  C        22.4605026414        3.2559105440       10.2575999822
  C        23.1538390305        4.3653086121       10.9804461092
  C        24.1570985702        4.0804115687       11.9202945951
  C        24.7839359066        5.1113407119       12.6162047786
  C        24.4276445824        6.4566973166       12.3946427168
  C        23.4474548608        6.7349400050       11.4232702792
  C        22.8159425496        5.7042435067       10.7279628037
  C        25.0569934401        7.5555631725       13.1691627282
  C        25.0477367967        7.5501536472       14.5919103041
  C        24.3540628835        6.5529905751       15.3478942407
  C        26.6250089758       17.8640090818        5.7849767055
  C        25.3168810829       17.9072698829        5.0601172965
  C        25.0604410373       18.8971876971        4.0984167547
  C        23.8471653785       18.9172215416        3.4129015462
  C        22.8527930732       17.9501836789        3.6660475485
  C        23.1057211922       16.9827929658        4.6569919086
  C        24.3210412606       16.9576383008        5.3402845594
  C        21.5792703879       17.9354324021        2.9016453589
  C        21.5787560319       17.9120829212        1.4789552013
  C        22.7838774329       17.7844366804        0.7185037487
  C        34.4230452018       17.2209097960        5.9129020359
  C        35.7142032359       17.1510918879        5.1693646778
  C        35.9105256901       16.1804599048        4.1748163209
  C        37.0933567248       16.1541810613        3.4407872364
  C        38.1119746235       17.0969608943        3.6814741667
  C        37.9182445847       18.0467819766        4.7027652461
  C        36.7334925571       18.0783438282        5.4341326899
  C        39.3680070918       17.0970774698        2.8970541514
  C        39.3668489069       17.1118979690        1.4750713347
  C        38.1618942111       17.2376465724        0.7143479438
  C        20.3322928086       17.9320115898        0.7699340581
  C        20.3539615261       17.9401880284        3.5833443182
  C        34.4746373483       17.2445809961       10.1819277174
  C        35.7783288387       17.1629819468       10.9017924361
  C        35.9898503537       16.1745188205       11.8744839003
  C        37.1754355292       16.1504415354       12.6030955359
  C        38.1772354480       17.1142543545       12.3784976717
  C        37.9725416108       18.0773397231       11.3729851873
  C        36.7848768995       18.1063477632       10.6470063651
  C        39.4220373112       17.1273191665       13.1772790893
  C        39.3946889560       17.1282241032       14.5984186680
  C        38.1751473811       17.2434994847       15.3374657161
  C        35.1358504367       26.6480278101       15.2924473804
  C        35.1704319316       26.6624663422       12.4833294372
  C        26.5725906777       17.8277289800       10.3260732881
  C        25.2578359479       17.8737999299       11.0327253068
  C        24.9972405747       18.8738953468       11.9819112886
  C        23.7794918065       18.8991946618       12.6561086522
  C        22.7929529614       17.9243602192       12.4051658354
  C        23.0483162262       16.9494695224       11.4237465924
  C        24.2666206431       16.9220351149       10.7476795226
  C        21.5293297042       17.9056970228       13.1781286628
  C        21.5532881067       17.8955584298       14.5997160431
  C        22.7712079968       17.7766001603       15.3420605324
  C        14.0469158405       17.8288451681       10.2891904579
  C        15.3513209136       17.8860367345       11.0151612179
  C        15.6079992050       18.8898262419       11.9622358078
  C        16.8168104242       18.9111365422       12.6556009120
  C        17.8036283259       17.9314380289       12.4243560708
  C        17.5516340247       16.9517335436       11.4452828583
  C        16.3423033884       16.9259021020       10.7534044172
  C        19.0728898472       17.9148449569       13.1936720079
  C        19.0718359639       17.9125803196       14.6163130699
  C        17.8648312248       17.8157995252       15.3777918479
  C        46.8059403650       17.2186741026       10.1597277334
  C        45.5183043150       17.1564385771       10.9085229499
  C        45.3159757970       16.1772104955       11.8934045238
  C        44.1365086913       16.1569900849       12.6327647988
  C        43.1297107727       17.1163565564       12.4094053569
  C        43.3298544259       18.0760478291       11.3985776616
  C        44.5098564234       18.0999230314       10.6598502474
  C        41.8765647516       17.1231865767       13.1974882228
  C        41.8786096412       17.1130431103       14.6193858084
  C        43.0855837461       17.2018359313       15.3816880384
  C        20.3187279132       17.9224861674       15.3247124434
  C        20.2971549575       17.8951212714       12.5115191684
  C        46.7831290681       17.2290214912        5.8911048215
  C        45.4773888734       17.1159676362        5.1808323499
  C        45.2602860429       16.1139959175        4.2226725730
  C        44.0707075357       16.0802363871        3.4991902136
  C        43.0679890485       17.0452440589        3.7165181561
  C        43.2746946286       18.0155307048        4.7149843323
  C        44.4655965010       18.0558545501        5.4334720949
  C        41.8227851585       17.0647917283        2.9171102325
  C        41.8511134221       17.0818845848        1.4960611765
  C        43.0724797330       17.1848630788        0.7582683007
  C        46.1533939960       26.6372592415        0.7262455012
  C        46.1624100730       26.6560360648        3.5358898282
  C        14.0458526994       17.8321233160        5.7090410764
  C        15.3674279907       17.9073929016        5.0193985540
  C        15.6413690538       18.9236942921        4.0919051848
  C        16.8708033238       18.9617797039        3.4378120177
  C        17.8541012138       17.9827068307        3.6852592478
  C        17.5871075305       16.9955516581        4.6513210976
  C        16.3597361028       16.9569877236        5.3089798354
  C        19.1215062648       17.9577098953        2.9162369695
  C        19.0971588595       17.9332751513        1.4946970314
  C        17.8772253758       17.8250043005        0.7540156253
  C        28.8097491267       14.0926082422       10.3910941968
  C        28.1958482273       12.9190314754       11.0782176124
  C        28.9146235827       12.1835919722       12.0321879095
  C        28.3138304726       11.1092432625       12.6834228653
  C        26.9799184474       10.7473930741       12.4060313696
  C        26.2832653762       11.4634007951       11.4160160366
  C        26.8820451312       12.5373070775       10.7623211794
  C        26.3089955680        9.6686935482       13.1669921705
  C        26.2944082864        9.6958136652       14.5880866198
  C        26.7981877480       10.8083009381       15.3344154865
  C        32.1791051801       21.2434511371       10.1447504383
  C        32.7722132494       22.4115469727       10.8610970003
  C        32.0214722094       23.0908687938       11.8328975554
  C        32.5905883905       24.1304937998       12.5619353784
  C        33.9260976464       24.5183554505       12.3401723942
  C        34.6591565169       23.8580246327       11.3362102894
  C        34.0923483114       22.8130623940       10.6088075259
  C        34.5537507300       25.5933614528       13.1420372539
  C        34.5434750116       25.5650650946       14.5637534109
  C        34.0321345854       24.4507195516       15.3013204183
  C        25.6842057752        8.6179989685       15.3065250142
  C        25.6733707020        8.6173455021       12.4933946072
  C        32.0996745485       21.2253002667        5.8814939591
  C        32.6882493623       22.3783600284        5.1380581195
  C        31.9510632835       23.0433879491        4.1461555336
  C        32.5309276912       24.0735047913        3.4092278236
  C        33.8617301480       24.4695556585        3.6469486699
  C        34.5815618767       23.8187912665        4.6672062877
  C        34.0066470804       22.7827752502        5.3986778142
  C        34.5013058852       25.5515025323        2.8629731541
  C        34.5154885212       25.5443027681        1.4410040103
  C        34.0176150542       24.4413936583        0.6781676664
  C        40.6154624211       17.0860107017        0.7694575132
  C        40.5902518968       17.0898303018        3.5791479488
  C        28.7388940381       14.0672667601        5.8182122147
  C        28.1300785312       12.9215645559        5.0795921013
  C        28.8701059968       12.2114313366        4.1216519586
  C        28.2860713111       11.1578641309        3.4220656881
  C        26.9474778451       10.7855993163        3.6585361262
  C        26.2247145479       11.4819797471        4.6452400890
  C        26.8059059451       12.5378825059        5.3442852142
  C        26.3043379053        9.6955086665        2.8860499799
  C        26.2947948119        9.7088344588        1.4644973665
  C        26.7972671842       10.8154637180        0.7104634975
  C        18.1353464062        3.1809769095       10.3171911419
  C        17.4060228688        4.2782047874       11.0157577106
  C        16.3905464506        3.9998295435       11.9435418053
  C        15.7428037900        5.0398026559       12.6070263517
  C        16.0944162923        6.3835564732       12.3670591048
  C        17.0834748879        6.6530852127       11.4029578222
  C        17.7325748624        5.6157514639       10.7379153381
  C        15.4701952321        7.4912609850       13.1301457511
  C        15.4855467208        7.4906071466       14.5518554174
  C        16.1871604960        6.4970299456       15.3050208326
  C        42.9458270673       31.8594908631       10.0729966110
  C        43.6462372260       30.7718579241       10.8168740108
  C        44.5917522577       31.0931648056       11.8029777824
  C        45.1974892255       30.0875931008       12.5505678698
  C        44.8710559673       28.7345250162       12.3356962668
  C        43.9452410002       28.4202115259       11.3224628377
  C        43.3363842516       29.4253677081       10.5744796746
  C        45.4886481286       27.6552298353       13.1388706241
  C        45.4928587028       27.6809116546       14.5605596228
  C        44.8057805504       28.6889541370       15.3071973752
  C        14.8566033696        8.5631236260       15.2642023653
  C        14.8748989073        8.5630146780       12.4515384599
  C        42.9464963966       31.9614914837        5.8090045278
  C        43.6917302480       30.8854169509        5.0955639274
  C        44.6562021710       31.1913399088        4.1231331509
  C        45.2777111496       30.1717656558        3.4053987579
  C        44.9540898315       28.8214164076        3.6431297908
  C        44.0207133713       28.5237461180        4.6540151608
  C        43.3924623433       29.5404980308        5.3662199043
  C        45.5631241314       27.7240508741        2.8578434448
  C        45.5334308641       27.7174122974        1.4365443360
  C        44.8270416781       28.7075949454        0.6835916024
  C        35.1231508511       26.6365030600        0.7374672560
  C        35.1128951491       26.6086121287        3.5474230522
  C        18.1485001194        3.2469793674        5.7066135458
  C        17.4298742808        4.3438132645        4.9973754364
  C        16.4148907014        4.0525270499        4.0735575516
  C        15.7665767203        5.0831485001        3.3981606751
  C        16.1210068642        6.4284114657        3.6211164297
  C        17.1120643386        6.7118168094        4.5787081857
  C        17.7597263558        5.6829075289        5.2584809728
  C        15.4905676629        7.5241299125        2.8486736806
  C        15.4965661003        7.5075277072        1.4275390341
  C        16.1933887250        6.5058726602        0.6808322987
  H        10.6723998673       12.4658973722        3.9045473744
  H        11.6945782661       10.5510190071        2.6626903768
  H        15.3916667744       11.1686879321        4.7721280946
  H        14.3512223960       13.0715630701        6.0172943513
  H        13.3762087188       11.6312099420        1.2013140191
  H        50.3228678572       22.7485679918        3.9870212817
  H        49.3197154909       24.6230399316        2.6810133665
  H        45.6419596953       24.1607475585        4.8633363658
  H        46.6628408300       22.2898115250        6.1715560979
  H        47.6297905899       23.5758691671        1.2461911053
  H        14.8719052370        8.5882433462        4.6085522191
  H        50.2871290460       22.7028201886       12.0601001580
  H        49.2691300468       24.5756945833       13.3601556611
  H        45.6102186887       24.1087407164       11.1463943488
  H        46.6523551213       22.2534419459        9.8321406899
  H        47.6077308303       23.5517995941       14.7968368793
  H        40.6627354858       17.1188699981       11.4277105124
  H        48.6871017495       14.0949762419        7.8000000671
  H        10.6813448227       12.4666364697       12.0931527448
  H        11.6895687831       10.5246682493       13.2968882502
  H        15.3936212687       11.1590173223       11.2056780419
  H        14.3650961227       13.0874846690        9.9903943503
  H        13.3759314072       11.6221964690       14.7530752421
  H        47.9301266862       14.2184791644        9.7105647844
  H        47.7801081329       14.3741296133        6.4952799637
  H        49.0838039218       18.5524329810       10.8673625115
  H        10.4159116844       14.1343590952        7.9985561687
  H        24.4842577472        3.0320499885        3.9171920967
  H        25.6208332311        4.8940281673        2.6909394325
  H        23.2392240928        7.7553827756        4.8449911677
  H        22.1209685794        5.8837201747        6.0725480313
  H        23.8043735287        5.7956023566        1.2650524193
  H        36.3703756508       32.1885046206        3.9733831094
  H        35.2429563449       30.3643398106        2.6954768007
  H        37.5131837823       27.4400097277        4.8855054067
  H        38.6201737163       29.2768294616        6.1729076173
  H        37.0153106979       29.4554311514        1.2762936164
  H        25.7270698827        8.6160354242        4.6514145571
  H        36.4543215356       32.2455135080       12.1086208938
  H        35.3389268883       30.4299125620       13.4044498942
  H        37.5252544172       27.4895094190       11.1499911389
  H        38.6152630289       29.3168282512        9.8413604323
  H        37.0346940311       29.4761373997       14.8282275286
  H        46.1091122288       26.5873947196       11.3855632641
  H        44.6681932731       35.1161039983        7.8138832535
  H        24.4363168749        3.0425030866       12.0870505174
  H        25.5655017210        4.8834257768       13.3378709940
  H        23.1607669464        7.7690756664       11.2433340891
  H        22.0432368349        5.9161138468        9.9925537111
  H        23.7842404642        5.7964854657       14.8161335878
  H        44.9535584959       34.3901545917        9.6950209911
  H        44.9014528666       34.2066759544        6.4906001863
  H        40.6659130589       33.2089831449       10.8531109857
  H        23.1504224468        1.9576785353        8.0052033324
  H        25.8251151372       19.6456028235        3.9036509073
  H        23.6541006323       19.6919541313        2.6738752616
  H        22.3505478458       16.2267652142        4.8624363157
  H        24.5258621941       16.1969718297        6.0900654354
  H        23.7241953981       17.6619520395        1.2481990878
  H        35.1195532973       15.4581698042        3.9869674735
  H        37.2443495766       15.3941085160        2.6773719968
  H        38.6965215798       18.7828415079        4.8934110841
  H        36.5681706997       18.8261328082        6.2063223242
  H        37.2208888322       17.3623835340        1.2425038585
  H        20.3604155568       17.9816659320        4.6711637838
  H        35.2050176125       15.4442821905       12.0568811659
  H        37.3388817787       15.3818295037       13.3552957084
  H        38.7404059473       18.8275389152       11.1957154298
  H        36.6039207554       18.8676053098        9.8918230733
  H        37.2444070330       17.3713121398       14.7921114682
  H        35.1448197379       26.6879708844       11.3955810384
  H        28.5083475726       21.0745436103        7.9723999198
  H        25.7613008217       19.6243489370       12.1721799291
  H        23.5768222935       19.6794729307       13.3865780731
  H        22.2950624981       16.1901220158       11.2237578344
  H        24.4793879544       16.1577255270       10.0040169246
  H        23.7019848691       17.6480094136       14.7978068003
  H        29.0068496552       21.7208147338        9.7562808599
  H        29.1707727087       21.7374628861        6.6302320977
  H        32.0896290326       18.5638531655       10.9956484717
  H        27.4064817166       19.0733184013        8.0804080091
  H        14.8496845342       19.6491902111       12.1396513202
  H        17.0116494507       19.6960752899       13.3832397428
  H        18.3027426564       16.1871881057       11.2574583175
  H        16.1367693717       16.1561694113       10.0132859807
  H        16.9220804805       17.7013368747       14.8507143484
  H        46.0999734338       15.4451191623       12.0720462479
  H        43.9796392605       15.3891037437       13.3870846103
  H        42.5605370620       18.8249675621       11.2222964210
  H        44.6804774162       18.8547185506        9.8957731213
  H        44.0289028272       17.3168578131       14.8554649131
  H        20.2910146260       17.9254254229       11.4233909189
  H        46.0400170265       15.3767675306        4.0454329656
  H        43.9062275832       15.3033671791        2.7556750982
  H        42.5055130421       18.7648500671        4.8900980700
  H        44.6461283294       18.8248395164        6.1806033516
  H        44.0058249078       17.2856882008        1.3044720282
  H        46.1992196917       26.6825064349        4.6233386325
  H        52.7411242074       21.0626498823        8.1946569689
  H        14.8808832455       19.6774764451        3.9001733790
  H        17.0821321929       19.7528335401        2.7215030917
  H        18.3376099822       16.2332668684        4.8502682834
  H        16.1383955651       16.1818836066        6.0386509833
  H        16.9436914628       17.7176638588        1.2981464857
  H        52.3224047042       21.6732327393        6.2942554341
  H        52.0131564143       21.7019832245        9.4956667902
  H        49.0667131907       18.6072474902        5.2042151738
  H        13.2475303505       19.0163712163        7.9775357971
  H        29.9413479328       12.4692450408       12.2496438668
  H        28.8731025743       10.5370982334       13.4205117483
  H        25.2526868150       11.1938768441       11.1941998404
  H        26.3418563743       13.1114418115       10.0135444436
  H        27.1615704455       11.6769018001       14.7936831424
  H        30.9960404632       22.7769212049       12.0122759281
  H        32.0037122131       24.6566366353       13.3116707959
  H        35.6928478606       24.1483253966       11.1596689023
  H        34.6641024088       22.2770319056        9.8547189901
  H        33.6758906124       23.5827424275       14.7538935988
  H        25.7049704102        8.5972102008       11.4054497382
  H        30.9255371900       22.7335676577        3.9593920949
  H        31.9526139142       24.5899635134        2.6461713513
  H        35.6116887984       24.1135902133        4.8564618528
  H        34.5679318129       22.2578475588        6.1681596432
  H        33.6500055424       23.5660910200        1.2060936209
  H        40.5807729661       17.0518477347        4.6668110474
  H        32.5128032301       14.1539533136        8.2598061961
  H        29.9057792655       12.4940594150        3.9465362105
  H        28.8665638444       10.6034300455        2.6877893499
  H        25.1891224836       11.2067676250        4.8342935436
  H        26.2445861104       13.0922921930        6.0927010853
  H        27.1586847166       11.6895565627        1.2443393198
  H        33.2997087425       14.1974421314        6.4438986952
  H        33.4082836555       14.4104137434        9.6049606220
  H        32.1046416427       18.5409775061        5.1726677634
  H        30.2339018545       14.1953043847        8.0726334843
  H        16.1186757714        2.9633096842       12.1301429128
  H        14.9535118652        4.8204043844       13.3228544557
  H        17.3655806886        7.6859909497       11.2095341467
  H        18.5142999104        5.8184108519       10.0097361943
  H        16.7537183449        5.7396874623       14.7715309122
  H        44.8280817335       32.1402355309       11.9771587172
  H        45.9373644350       30.3413042625       13.3065144503
  H        43.6825307756       27.3781490198       11.1523206249
  H        42.5998110717       29.1899966450        9.8097838290
  H        44.2303343659       29.4366615963       14.7689074270
  H        14.8510317914        8.5462436258       11.3633217528
  H        44.8996561155       32.2340229805        3.9315955780
  H        46.0245281529       30.4129914686        2.6520762451
  H        43.7638537872       27.4840088583        4.8456776233
  H        42.6460847868       29.3176376894        6.1247656265
  H        44.2684684886       29.4704444210        1.2181581903
  H        35.0724515612       26.6192102707        4.6349915443
  H        36.6050247422       35.1340835326        8.1806150586
  H        16.1439746859        3.0129351984        3.9036524204
  H        14.9744224094        4.8562906041        2.6878880033
  H        17.3953123902        7.7473122397        4.7558572489
  H        18.5423368419        5.8933653222        5.9835279535
  H        16.7648419741        5.7556468255        1.2192649031
  H        36.2784282335       34.4825906209        6.2732203968
  H        36.3806130317       34.2093170911        9.4996754211
  H        40.5801145985       33.2023968998        5.1536769196
  H        17.4706633054        1.9473661211        7.9741389790
  H        29.0548862826       19.3869714760       12.5179004411
  H        29.4996490527       19.5592605907        3.5394828228
  H        30.3714853757       15.6903307297        3.9351195523
  H        31.1523400015       15.5571394192       12.5108147385
  H        27.7385415542       17.8462475947       14.4887768942
  H        29.1815757044       15.3094994818       14.5155900075
  H        31.3089585273       19.3928062824        1.2964160494
  H        32.0457298857       16.0445993955        1.9430017957
  H        18.8535961332        0.8691604166       12.3352696977
  H        40.5278649258       35.2290592194        3.9520558866
  H        42.3239466005       34.4187566785        3.5906069190
  H        22.0879425648        0.6921238861       12.3515906267
  H        11.5970444523       18.7130853279       12.3823478336
  H        52.2651585744       18.4311743836        3.6775089605
  H        49.2557419348       16.4771531611        3.5843210341
  H        10.1508492690       15.7982056319       12.2926573384
  H        50.8502593674       17.6923936112        3.9543129809
  H        10.0464059200       17.3945055919       12.0520042648
  H        20.2148395210        0.0023587833       12.0420159868
  H        39.1835419097       36.1244787551        3.6864431343
 Ni        30.7326377983       17.7450887657        2.8320738038
 Ni        30.8188984385       16.5129038832       -0.1650613725
 Ni        29.5097726973       18.5475985718       -0.0007613583
 Ni        30.0601860363       17.4468812048       13.3230540229
  O        10.6499310820       14.3650613897        5.4858147171
  O        12.6131357429       14.6575549322        6.5839266974
  O        49.1478997159       16.8459588539        7.9896994353
  O        50.3502420857       20.9358784194        5.6481068197
  O        48.3485775283       20.5932810909        6.6659195118
  O        11.0516371816       17.0539519832        6.5007183845
  O        50.3209815348       20.8816567656       10.4068100562
  O        48.3467591584       20.5867557545        9.3270408213
  O        49.5437205924       18.2484614299       10.0681900834
  O        12.3590469133       18.6246386104        7.9997590986
  O        48.6932522624       14.1486129040        6.7512612840
  O         8.2099380527       14.2102897343        9.3224850560
  O        10.7354317002       14.5067064478       10.6643178226
  O        12.5718483009       14.5828649217        9.3284739921
  O        22.8445676835        2.0432270543        5.4872093000
  O        21.6052138047        3.5921302002        6.5900160993
  O        42.0581881928       34.1373120613        7.9789741555
  O        37.9817504694       33.1383752035        5.5727228534
  O        39.2181056631       31.5763209607        6.6666638253
  O        20.3083655482        1.0395801703        6.5020019446
  O        38.0249509159       33.1863665156       10.4149919111
  O        39.2190648374       31.5838049966        9.3265410645
  O        40.6523224624       33.7693975399       10.0602931163
  O        18.2553611025        1.3762049936        7.9967842887
  O        44.6222287594       35.1005422338        6.7586988880
  O        24.2054220373        0.0000410227        9.3208187322
  O        22.7530759281        2.0580642321       10.5839285713
  O        21.6243742095        3.5960902463        9.3425118870
  O        27.4980194082       18.7555145713        5.5002142673
  O        26.7676054034       16.9333527215        6.6549131529
  O        30.6643564168       19.4030295595        8.0702176335
  O        33.5427449598       16.3303535237        5.6534193269
  O        34.2773128842       18.1795264515        6.7429883984
  O        29.5724828389       17.0657997505        6.5820521427
  O        33.6129974511       16.3292897639       10.4134647719
  O        34.3053337367       18.2461484353        9.4075958751
  O        31.6541664957       18.3144687391       10.1629722255
  O        30.3258317003       15.1620700403        8.0866487512
  O        28.5553293162       21.0323598189        6.9016415588
  O        28.5148856847       20.9550105399        9.4139368164
  O        27.4596532765       18.6785438841       10.6617516352
  O        26.6943109389       16.9298409544        9.4143655164
  O        13.1489720716       18.6929459376       10.5875547923
  O        13.9197226013       16.9163006607        9.4053091301
  O        50.5960299390       19.3502018179        8.0203435236
  O        47.6843520378       16.3266753386       10.4170292512
  O        46.9515484120       18.1755868465        9.3250244196
  O        11.0698364790       17.0155232669        9.4896672218
  O        47.6755699171       16.3355817502        5.6533125148
  O        46.9257979485       18.2357410202        6.6638292012
  O        49.5684995503       18.3177062234        5.9822090662
  O        10.3186788064       15.1002133090        7.9970529242
  O        52.6707734705       21.0278876981        9.2418188148
  O        12.1468049540       20.8911624003        6.6732379766
  O        13.1083271354       18.6136917588        5.3255964599
  O        13.9573696269       16.9871153825        6.6653896921
  O        29.9936491681       14.4429359202       10.7319967044
  O        28.0898685657       14.6543242630        9.4944671799
  O        32.1341913665       16.8601581577        8.0859543523
  O        30.9657597941       20.9535909648       10.4089224197
  O        32.9471143421       20.6033388285        9.3403379721
  O        29.5697001947       17.0770646382        9.5795045767
  O        30.8687611484       20.9405105586        5.6607906858
  O        32.8758265625       20.5870281438        6.6659840849
  O        31.6808037479       18.2561104694        5.9991795334
  O        28.2924910114       18.6760299025        8.0797498524
  O        32.4922876554       14.2154044137        9.3327266113
  O        32.4053226136       14.2167558451        6.8228139452
  O        29.9160006874       14.4424888211        5.4836291488
  O        28.0409315608       14.5865287835        6.7528408471
  O        17.8892160225        1.9666355100       10.6628566474
  O        18.9561897405        3.5271727911        9.4079965262
  O        39.1686718992       34.1388327903        7.9971825329
  O        43.2802293455       33.0589873833       10.3316581177
  O        42.0345302320       31.5064683213        9.2416322136
  O        20.3176771589        1.0367582155        9.4802631415
  O        43.2760578738       33.1825376074        5.5748713368
  O        42.0052801637       31.5841061196        6.5830088018
  O        40.5790144833       33.7749881284        5.9358663545
  O        22.3672550834        1.3845480924        7.9979505346
  O        36.6727083056       35.0998557010        9.2332677666
  O        16.4455060921        0.0643407546        6.6683346604
  O        17.9365143148        2.0433691375        5.3263809655
  O        18.9189853966        3.5931359751        6.6659501427
  O        29.8272613411       18.8242353258        4.0877234894
  O        29.8187090236       18.9771513642       12.0684273020
  O        31.0920456578       16.3369608646        4.0767876447
  O        31.2977583676       16.4161701163       12.0677650234
  O        31.7292290896       16.8514391955        1.4928472621
  O        30.0840835324       15.6243204325       14.3341704724
  O        30.4068373055       19.1291734259        1.5613905845
  O        28.5422783136       18.3896660728       14.4147140386
  O        39.4567453052       35.2438804364        4.0020044567
  O        19.1415452754        0.0047053721       11.9905577132
  O        41.9696026473       35.1726667878        4.0872167706
  O        21.6914081669       -0.0691978292       11.8959007207
  O        51.3652705826       18.6143325488        4.0054291313
  O        10.7511853562       18.7471963918       11.9049026937
  O        50.0801074058       16.4128107243        4.0917056531
  O         9.5248790867       16.4829908942       11.9912281651
 Zr         9.2967598331       16.0529280646        6.1824349430
 Zr        49.8363801261       16.0066646615        9.7464046005
 Zr        22.0731214120        0.0295441766        6.1891254786
 Zr        42.4609040345       35.1532547652        9.8008732415
 Zr        29.6057595111       19.0897398095        6.2904701191
 Zr        29.5844923853       19.1748461330        9.8916205458
 Zr        11.0379597411       19.0519375292        9.8276497107
 Zr        11.0438313734       19.1548186482        6.2510152683
 Zr        31.3517198366       16.1085567676        9.9101720571
 Zr        31.3993578887       16.0302679712        6.3032608718
 Zr        18.6010355642       -0.0014663037        9.7633793225
 Zr        18.5063782024       -0.0077542698        6.2137442575
 Zr        12.3021091025       16.3237293038        7.9902981834
 Zr        48.6160724980       18.8329839248        8.0100291645
 Zr        20.3148664350        2.4731397248        7.9906365917
 Zr        40.6434163793       32.6869220731        7.9782927135
 Zr        28.3464999571       16.3477649398        8.0862770715
 Zr        32.6291041316       18.8439297904        8.0612080368
  H        30.8769537648       17.8522261745       14.7833911209
  H        29.4339682029       17.0566749673        0.4557222384
