     566
 i =      135, E =     -4712.2408246553
  C        11.8587722860       14.0537271573        5.7416515158
  C        12.4564377363       12.8908344320        5.0232500893
  C        11.7047524597       12.1719246135        4.0815867574
  C        12.2811507187       11.1097480936        3.3891958318
  C        13.6217247516       10.7399802464        3.6169198785
  C        14.3549085379       11.4435699376        4.5903593024
  C        13.7819859459       12.5085039836        5.2819212262
  C        14.2612410901        9.6492883997        2.8435371816
  C        14.2565062218        9.6571251394        1.4218296099
  C        13.7432771237       10.7592068272        0.6679039093
  C        49.1268242904       21.2330737893        5.8797908502
  C        48.5500468777       22.4009925752        5.1525794568
  C        49.3002158425       23.0685339203        4.1718481244
  C        48.7333095441       24.1076896232        3.4386336456
  C        47.4026710338       24.5091154585        3.6670230621
  C        46.6715183321       23.8599446423        4.6801871684
  C        47.2339550821       22.8150259837        5.4095497900
  C        46.7724933408       25.5869000045        2.8697740226
  C        46.7615449166       25.5573789611        1.4480044980
  C        47.2614485904       24.4422754329        0.7045077799
  C        14.8603841032        8.5707360834        0.7085869808
  C        14.8919934340        8.5973358233        3.5202026549
  C        49.1134128766       21.2033054029       10.1453455218
  C        48.5280540722       22.3647325475       10.8725616648
  C        49.2673744463       23.0255804251       11.8653103133
  C        48.6910906124       24.0601753829       12.5967705456
  C        47.3606372260       24.4568609355       12.3586481752
  C        46.6400924448       23.8117732403       11.3353438497
  C        47.2135978575       22.7758069597       10.6035863756
  C        46.7222257622       25.5318958827       13.1496608008
  C        46.7338775314       25.5282657034       14.5713737207
  C        47.2492318815       24.4290061963       15.3277449165
  C        40.6185340446       17.0852008878       15.3088695236
  C        40.6277843097       17.0989040372       12.4991628067
  C        11.8830151296       14.0867002140       10.2854706624
  C        12.4722957267       12.9107482209       10.9896048703
  C        11.7146687832       12.1775014975       11.9155832451
  C        12.2811952836       11.0950224447       12.5840315988
  C        13.6200435858       10.7213551340       12.3523282834
  C        14.3581163599       11.4369395647       11.3916242764
  C        13.7927590888       12.5181498902       10.7189218950
  C        14.2536290397        9.6245935727       13.1227574285
  C        14.2524770953        9.6446224819       14.5446006205
  C        13.7426263894       10.7535967790       15.2916471912
  C        22.5104206094        3.2445202918        5.7519301471
  C        23.2213433539        4.3506144155        5.0498273238
  C        24.2159058313        4.0721690675        4.1006938210
  C        24.8396359804        5.1128298949        3.4172963869
  C        24.4843350153        6.4541009433        3.6627487404
  C        23.5175895705        6.7240698732        4.6484565294
  C        22.8892898375        5.6852556715        5.3302619719
  C        25.0884612966        7.5617427152        2.8874754927
  C        25.0627232949        7.5555166979        1.4659463999
  C        24.3614562077        6.5565469434        0.7186475471
  C        38.2960073380       31.9313370357        5.8562314351
  C        37.5480649986       30.8449050510        5.1615060669
  C        36.5781588369       31.1554591973        4.1961788200
  C        35.9443019614       30.1393203280        3.4872351951
  C        36.2660491295       28.7884123150        3.7218752102
  C        37.2032820892       28.4849848360        4.7270190868
  C        37.8412414348       29.5001963318        5.4352653351
  C        35.6565319056       27.7036460022        2.9204524353
  C        35.6998214949       27.7222585729        1.4995776253
  C        36.4183561520       28.7225801402        0.7714061268
  C        25.6875101827        8.6252923793        0.7472227412
  C        25.6849152420        8.6363380409        3.5592208347
  C        38.3341497645       31.9634533125       10.1616913747
  C        37.6233164678       30.8933186143       10.9179867721
  C        36.6911744792       31.2081514878       11.9185400466
  C        36.0845031388       30.1948096945       12.6578462799
  C        36.3960987825       28.8413474307       12.4199170142
  C        37.3114040571       28.5361553100       11.3939620045
  C        37.9195784973       29.5461087836       10.6554674175
  C        35.7770092065       27.7467768301       13.2013316155
  C        35.7609599524       27.7445997487       14.6233799515
  C        36.4465316511       28.7344097903       15.3951715403
  C        46.1359044540       26.6209344041       15.2815030134
  C        46.0882986764       26.5802647461       12.4736007246
  C        22.4610393627        3.2563913421       10.2571181100
  C        23.1549642972        4.3664362213       10.9783478915
  C        24.1597653902        4.0828114979       11.9169661906
  C        24.7869232466        5.1146482299       12.6112438305
  C        24.4292557326        6.4597075302       12.3897864575
  C        23.4477313974        6.7366804244       11.4194139714
  C        22.8160854637        5.7051047574       10.7254596645
  C        25.0583486344        7.5588028188       13.1643418440
  C        25.0484601865        7.5531217701       14.5870551244
  C        24.3527031429        6.5565023375       15.3418441669
  C        26.6143867093       17.8587396255        5.7813244505
  C        25.3066696610       17.9048620576        5.0596729187
  C        25.0437874659       18.9053867128        4.1103596122
  C        23.8316331609       18.9250232511        3.4233748817
  C        22.8439755647       17.9475919908        3.6623502096
  C        23.1023770129       16.9698976679        4.6419829360
  C        24.3168778531       16.9448081212        5.3269088071
  C        21.5739127533       17.9348683286        2.8915361546
  C        21.5831308136       17.9290505568        1.4684203041
  C        22.7936371701       17.8098666628        0.7152315105
  C        34.4390339463       17.1925046410        5.9163019022
  C        35.7334117676       17.1369653053        5.1772600909
  C        35.9293294371       16.1747922634        4.1740780846
  C        37.1098166511       16.1581044569        3.4367935146
  C        38.1259097775       17.1026981768        3.6807966834
  C        37.9327087921       18.0441913690        4.7100727161
  C        36.7499052436       18.0662553110        5.4455342416
  C        39.3775658209       17.1100346261        2.8896409610
  C        39.3687772619       17.1178609967        1.4673003079
  C        38.1599566135       17.2413485029        0.7127045833
  C        20.3415218258       17.9570375994        0.7511258014
  C        20.3443144607       17.9277422408        3.5656157614
  C        34.4410621782       17.2431118361       10.1820537281
  C        35.7424074642       17.1386816228       10.9011908890
  C        35.9323311319       16.1747701165       11.9030817156
  C        37.1213748185       16.1420868613       12.6275643487
  C        38.1484798077       17.0724288900       12.3726907368
  C        37.9635778903       18.0076704579       11.3364010764
  C        36.7748972849       18.0453498372       10.6137697002
  C        39.3972461006       17.0876916218       13.1671239890
  C        39.3785542956       17.1069521829       14.5891705383
  C        38.1647544717       17.2348630127       15.3357817263
  C        35.1126134017       26.6708135690       15.3199251979
  C        35.1962128786       26.6756787131       12.5106313448
  C        26.6480330869       17.8299312170       10.3691809642
  C        25.3300478282       17.8975962307       11.0697641580
  C        25.0672200650       18.9006316227       12.0152024373
  C        23.8372658505       18.9426590686       12.6690842835
  C        22.8400258026       17.9810040696       12.4053665417
  C        23.0991362211       17.0047649257       11.4255650252
  C        24.3268106330       16.9624394748       10.7676523530
  C        21.5660269603       17.9671135505       13.1661053350
  C        21.5785863948       17.9449461189       14.5884623616
  C        22.7908329180       17.8169523833       15.3387279336
  C        14.0537366590       17.8343189918       10.2852660872
  C        15.3673748195       17.9060309452       10.9986143456
  C        15.6282481524       18.9196086399       11.9346862548
  C        16.8431175383       18.9543514139       12.6183515700
  C        17.8356805172       17.9788579100       12.3907055478
  C        17.5805502149       16.9911179000       11.4199250980
  C        16.3649140840       16.9519060497       10.7374400682
  C        19.1060426768       17.9693457787       13.1637357593
  C        19.0961883667       17.9579397869       14.5872540992
  C        17.8844501172       17.8541494951       15.3407759407
  C        46.8017655141       17.2157543629       10.1567231514
  C        45.5077035542       17.1443957361       10.8960997774
  C        45.3022685167       16.1599046222       11.8753897877
  C        44.1178942747       16.1310763293       12.6071601971
  C        43.1072928259       17.0865612949       12.3830039189
  C        43.3091746935       18.0494159811       11.3753718999
  C        44.4944282626       18.0821382143       10.6441545188
  C        41.8541634096       17.0909741913       13.1737826705
  C        41.8634829737       17.0952138560       14.5961950971
  C        43.0744593048       17.1928289936       15.3512810180
  C        20.3382521078       17.9637796461       15.3050817372
  C        20.3368170342       17.9583821326       12.4909391552
  C        46.7851982270       17.2320905463        5.8862971287
  C        45.4844100058       17.1268317929        5.1657846723
  C        45.2682751933       16.1268403180        4.2052003342
  C        44.0815540578       16.0972789788        3.4766719392
  C        43.0805689128       17.0649056990        3.6906590849
  C        43.2880613847       18.0360237179        4.6882931123
  C        44.4756395429       18.0716760086        5.4124240759
  C        41.8325546263       17.0819137194        2.8955293203
  C        41.8527310058       17.0891137679        1.4741066522
  C        43.0694348585       17.1871444652        0.7283382300
  C        46.1536309777       26.6373285037        0.7262696542
  C        46.1625522919       26.6560103027        3.5359198199
  C        14.0448168132       17.8283405647        5.7038760251
  C        15.3618156897       17.8960707686        5.0027340951
  C        15.6366678085       18.9162906809        4.0795208906
  C        16.8632662080       18.9533286326        3.4194327727
  C        17.8443860828       17.9691325949        3.6556380395
  C        17.5743018313       16.9738942571        4.6128941829
  C        16.3499602334       16.9367849472        5.2770507604
  C        19.1156290463       17.9527191851        2.8909027444
  C        19.1015460301       17.9482323078        1.4684673515
  C        17.8871479572       17.8499526359        0.7174586217
  C        28.8004389314       14.0834714227       10.3604884747
  C        28.1938771110       12.9147669101       11.0582922352
  C        28.9230280739       12.1669522828       11.9952141963
  C        28.3216191427       11.0988937876       12.6570113606
  C        26.9795928384       10.7509997844       12.4013764249
  C        26.2728807370       11.4776805427       11.4263815038
  C        26.8698580871       12.5485640733       10.7667588994
  C        26.3107999303        9.6714564779       13.1640097848
  C        26.2979611284        9.6974125902       14.5849276174
  C        26.8029515327       10.8091547947       15.3313883301
  C        32.1790756704       21.2756109023       10.1660217965
  C        32.7711362359       22.4434724706       10.8802164539
  C        32.0066504460       23.1682131200       11.8083405967
  C        32.5816146692       24.2024045159       12.5395612828
  C        33.9355695317       24.5426293081       12.3590962217
  C        34.6834692082       23.8419666394       11.3947501576
  C        34.1111130106       22.8006814867       10.6670581363
  C        34.5618774619       25.6148348291       13.1641896938
  C        34.5243800220       25.5906676435       14.5847562244
  C        33.9913258528       24.4820278989       15.3152100209
  C        25.6851179361        8.6203165084       15.3025181090
  C        25.6742103089        8.6213996127       12.4893095722
  C        32.0785003800       21.2066075682        5.8761279971
  C        32.6436715128       22.3763045576        5.1424949591
  C        31.9027063971       23.0275243846        4.1444627160
  C        32.4698985553       24.0706050677        3.4148928868
  C        33.7917656040       24.4900462460        3.6630964373
  C        34.5138800687       23.8523383244        4.6903170813
  C        33.9515806273       22.8065054179        5.4163079857
  C        34.4294720484       25.5764608858        2.8833191600
  C        34.4568487238       25.5710895787        1.4611266946
  C        33.9595639514       24.4722322959        0.6918172018
  C        40.6129213273       17.0865645566        0.7542075000
  C        40.6037837092       17.1088623361        3.5645215690
  C        28.7396260721       14.0627177338        5.8189965196
  C        28.1281658726       12.9193345449        5.0801404534
  C        28.8636125595       12.2153579823        4.1143961537
  C        28.2783208192       11.1632944936        3.4143306759
  C        26.9421308132       10.7868913012        3.6568587133
  C        26.2235309189       11.4771601579        4.6507888097
  C        26.8066215944       12.5313199626        5.3510145175
  C        26.2981836719        9.6986730650        2.8828210363
  C        26.2912349200        9.7121700631        1.4610388328
  C        26.7968712844       10.8180179776        0.7075301103
  C        18.1353090157        3.1810908127       10.3171588178
  C        17.4059697966        4.2782523485       11.0157142405
  C        16.3904988455        3.9998488455       11.9435064973
  C        15.7427365306        5.0397982479       12.6069919182
  C        16.0943393314        6.3835654572       12.3670494903
  C        17.0834009709        6.6531214331       11.4029540544
  C        17.7325298908        5.6158121487       10.7379084754
  C        15.4700420344        7.4912495925       13.1300969501
  C        15.4854351793        7.4906037513       14.5518057182
  C        16.1870775133        6.4970589365       15.3049890536
  C        42.9459723278       31.8595108440       10.0728706227
  C        43.6464180953       30.7719089896       10.8167507796
  C        44.5915973190       31.0933049927       11.8031524676
  C        45.1974009752       30.0878010489       12.5507836610
  C        44.8714415681       28.7346531705       12.3356538988
  C        43.9460561100       28.4202513189       11.3220315683
  C        43.3371675709       29.4253423749       10.5739860325
  C        45.4890610793       27.6553946305       13.1388664195
  C        45.4932245514       27.6810695286       14.5605663753
  C        44.8061450079       28.6890999803       15.3072205014
  C        14.8565239785        8.5631359569       15.2641548996
  C        14.8747481898        8.5630050599       12.4514871918
  C        42.9465446750       31.9615624937        5.8089176588
  C        43.6918382703       30.8854986854        5.0955605714
  C        44.6563436489       31.1914142430        4.1231436143
  C        45.2779138432       30.1718339840        3.4054632236
  C        44.9543084359       28.8214676364        3.6431784206
  C        44.0209997761       28.5238035930        4.6541404044
  C        43.3926934315       29.5405560418        5.3662974310
  C        45.5633403282       27.7240899097        2.8578931878
  C        45.5336986601       27.7174908507        1.4365878936
  C        44.8274122699       28.7077306002        0.6836154682
  C        35.0793025004       26.6601342209        0.7644026680
  C        35.0406398118       26.6306291726        3.5735572630
  C        18.1485307642        3.2471532518        5.7065612677
  C        17.4299766212        4.3439588760        4.9973256650
  C        16.4148457055        4.0527373318        4.0736374652
  C        15.7665921373        5.0834042472        3.3982640768
  C        16.1211971230        6.4286498506        3.6210871842
  C        17.1124745260        6.7119646910        4.5784793471
  C        17.7600944905        5.6830317405        5.2582528989
  C        15.4907629056        7.5243595760        2.8486245757
  C        15.4966163930        7.5076548947        1.4274936989
  C        16.1933686521        6.5059419903        0.6808017368
  H        10.6726023374       12.4660269424        3.9046186583
  H        11.6948221671       10.5512425021        2.6627053679
  H        15.3919550387       11.1690072933        4.7720575386
  H        14.3513977129       13.0717059165        6.0174200316
  H        13.3762510799       11.6313341086        1.2012032259
  H        50.3229984548       22.7486255654        3.9872917359
  H        49.3198925809       24.6231147816        2.6812398976
  H        45.6418839782       24.1604128842        4.8630571093
  H        46.6627827231       22.2894941186        6.1713274832
  H        47.6298494577       23.5758410432        1.2461998680
  H        14.8723378261        8.5886459926        4.6085103898
  H        50.2874501715       22.7027646171       12.0601221584
  H        49.2695553578       24.5757023036       13.3601715412
  H        45.6106026276       24.1088291793       11.1464562733
  H        46.6526263054       22.2534289232        9.8322744142
  H        47.6079244451       23.5518586869       14.7968316174
  H        40.6311927185       17.0612049665       11.4114567899
  H        48.6869967179       14.0949267770        7.7999101309
  H        10.6811595062       12.4665338723       12.0928495254
  H        11.6893157308       10.5245886603       13.2966266923
  H        15.3935983438       11.1591358763       11.2058497760
  H        14.3651766569       13.0876538882        9.9905539460
  H        13.3757043017       11.6221454256       14.7529666405
  H        47.9300872391       14.2185717805        9.7108093420
  H        47.7800048758       14.3736245127        6.4951178977
  H        49.0826880210       18.5514682539       10.8671007799
  H        10.4159093252       14.1344421643        7.9989091068
  H        24.4781097421        3.0340213258        3.9091563130
  H        25.6114749021        4.8967132440        2.6817846569
  H        23.2357406783        7.7565574048        4.8442749625
  H        22.1207980769        5.8842575082        6.0731852435
  H        23.7989664274        5.8000529494        1.2580883084
  H        36.3478573454       32.2003161768        4.0021978378
  H        35.1940002085       30.3826540807        2.7381338129
  H        37.4578314461       27.4440152842        4.9152976036
  H        38.5919501682       29.2748464050        6.1890579625
  H        36.9791233547       29.4700346884        1.3249672769
  H        25.7190508147        8.6188235922        4.6470511583
  H        36.4612909029       32.2533628399       12.1125062074
  H        35.3536237332       30.4442008024       13.4239020076
  H        37.5657408495       27.4951977428       11.2057007471
  H        38.6464577243       29.3159992865        9.8802943160
  H        37.0297875249       29.4903680935       14.8771859345
  H        46.1097513620       26.5876088113       11.3855647220
  H        44.6683334999       35.1161966038        7.8138891077
  H        24.4399486088        3.0452191918       12.0841101174
  H        25.5694302208        4.8877004394       13.3322021427
  H        23.1599232895        7.7704706065       11.2392740621
  H        22.0423963549        5.9161288394        9.9908463664
  H        23.7830620750        5.8004959355       14.8092667800
  H        44.9539205765       34.3905194981        9.6952907225
  H        44.9020637696       34.2069491454        6.4905085625
  H        40.6675762311       33.2099763123       10.8536077250
  H        23.1504171419        1.9579201482        8.0049430580
  H        25.8008035763       19.6638990608        3.9252940396
  H        23.6345942367       19.7070163733        2.6931706868
  H        22.3529227681       16.2053039675        4.8363194563
  H        24.5263537338       16.1749680129        6.0659663414
  H        23.7306881838       17.6783854753        1.2488721948
  H        35.1371617252       15.4560471341        3.9779543153
  H        37.2592307693       15.4050940505        2.6661521965
  H        38.7085363437       18.7822199066        4.9030914588
  H        36.5845222287       18.8094108651        6.2221436000
  H        37.2221636545       17.3737675596        1.2448378324
  H        20.3437317172       17.9549903663        4.6539054758
  H        35.1290873249       15.4724542619       12.1149929255
  H        37.2656430841       15.3914270750       13.4014642724
  H        38.7492625454       18.7321105833       11.1322791483
  H        36.6136514156       18.7865850778        9.8347772261
  H        37.2301219337       17.3623834817       14.7973401271
  H        35.1901364117       26.6965445405       11.4225349248
  H        28.5047434630       21.0889775321        7.8685561179
  H        25.8373450964       19.6422319229       12.2175599294
  H        23.6349727042       19.7261846073       13.3962455841
  H        22.3404114718       16.2543838192       11.2128064127
  H        24.5376509141       16.1971411250       10.0245335226
  H        23.7260562228       17.6908144563       14.8015636150
  H        28.9436129041       21.7325007566        9.7863988137
  H        29.1928130621       21.7153006159        6.5514190256
  H        32.1426287188       18.5813459266       10.9579914801
  H        27.4010960906       19.0678541620        8.0762429066
  H        14.8672984609       19.6760832040       12.1135233045
  H        17.0365524766       19.7464157733       13.3387124297
  H        18.3337192715       16.2286619254       11.2315515443
  H        16.1602903081       16.1740959079       10.0053927842
  H        16.9448678648       17.7454696609       14.8069511818
  H        46.0883837815       15.4308502544       12.0572591873
  H        43.9613836794       15.3602846765       13.3586532897
  H        42.5375591410       18.7953432247       11.1962998776
  H        44.6649933149       18.8407318668        9.8837532597
  H        44.0147620289       17.3040945616       14.8190040254
  H        20.3382044537       17.9933207281       11.4028177434
  H        46.0456599894       15.3862453041        4.0316716695
  H        43.9169824061       15.3200507951        2.7335455442
  H        42.5207846248       18.7880196405        4.8602381487
  H        44.6556029593       18.8399764309        6.1603822328
  H        44.0060123208       17.2929869481        1.2681813457
  H        46.1993392953       26.6824370317        4.6233699646
  H        52.7410625875       21.0625095698        8.1947446127
  H        14.8797374562       19.6759859872        3.8971639355
  H        17.0748820165       19.7499778822        2.7094150389
  H        18.3213438654       16.2058482115        4.8026003303
  H        16.1288849549       16.1568912536        6.0017953191
  H        16.9494721545       17.7379376349        1.2536940834
  H        52.3219930735       21.6728724863        6.2943049132
  H        52.0124624704       21.7013019760        9.4956390329
  H        49.0676287473       18.6076002569        5.2042418747
  H        13.2477880290       19.0164252461        7.9754612702
  H        29.9603249968       12.4317975727       12.1889246795
  H        28.8878880939       10.5187906226       13.3825333694
  H        25.2363125595       11.2182740712       11.2211788458
  H        26.3212913597       13.1311526711       10.0307535624
  H        27.1683760404       11.6774684966       14.7913443717
  H        30.9601913766       22.9083499618       11.9481633636
  H        31.9858506113       24.7623946751       13.2570717043
  H        35.7310290572       24.0983543265       11.2504443528
  H        34.6919437330       22.2323826384        9.9441399624
  H        33.6339325842       23.6167580623       14.7642122239
  H        25.7045778089        8.6029795924       11.4012914895
  H        30.8880284758       22.6922045952        3.9419845773
  H        31.8882796568       24.5757238013        2.6468316041
  H        35.5374909709       24.1638904576        4.8876089527
  H        34.5166132809       22.2915176735        6.1895249181
  H        33.5787530212       23.5986062311        1.2133743222
  H        40.6006254732       17.0750819145        4.6523299885
  H        32.5151725147       14.1557057296        8.2437384008
  H        29.8968013705       12.5008834210        3.9307954886
  H        28.8563327530       10.6141738771        2.6742109366
  H        25.1895766929       11.1991390608        4.8445970566
  H        26.2483453642       13.0810187488        6.1050811607
  H        27.1564986166       11.6932822897        1.2409921076
  H        33.2997561650       14.2132160994        6.4468422991
  H        33.4078275756       14.3743205748        9.6122826789
  H        32.0915787501       18.5039936822        5.0757524767
  H        30.2424452758       14.1972915914        8.0719989564
  H        16.1186594358        2.9633267703       12.1301153994
  H        14.9534548239        4.8203955850       13.3228294193
  H        17.3655289735        7.6860303168       11.2095771728
  H        18.5143005243        5.8185266645       10.0097961180
  H        16.7536722690        5.7397337106       14.7715130335
  H        44.8275828177       32.1404117971       11.9775853252
  H        45.9370260030       30.3416500944       13.3069298194
  H        43.6838511117       27.3781180134       11.1515454333
  H        42.6010560142       29.1898613396        9.8088786488
  H        44.2307840446       29.4368852677       14.7689555766
  H        14.8508910099        8.5462202617       11.3632696070
  H        44.8998143710       32.2340902722        3.9315776383
  H        46.0247464480       30.4130873145        2.6521612441
  H        43.7642031575       27.4840588001        4.8458556671
  H        42.6463621817       29.3176658667        6.1248769418
  H        44.2689001687       29.4706315012        1.2181712404
  H        34.9926533318       26.6399036924        4.6608224272
  H        36.6052192560       35.1344663410        8.1802890290
  H        16.1437654224        3.0131755830        3.9038317951
  H        14.9743074823        4.8566156051        2.6881172215
  H        17.3959242216        7.7474302478        4.7554727970
  H        18.5428925712        5.8934855093        5.9830968303
  H        16.7648855078        5.7557590130        1.2192287567
  H        36.2789393868       34.4826043207        6.2733109301
  H        36.3809805650       34.2090480123        9.4988907384
  H        40.5791940136       33.2018358196        5.1541400069
  H        17.4707498673        1.9477492190        7.9741258081
  H        29.5703967345       19.1008506411       12.9841480965
  H        28.9593794940       19.0530479927        3.6469524379
  H        30.8977559882       15.3005244392        3.7528090068
  H        30.8668278128       15.3127359507       12.2200778696
  H        28.4977030249       17.9291977153       14.2889980055
  H        30.0494399040       14.7635090932       14.9730459852
  H        18.8533925394        0.8691817431       12.3351285861
  H        40.5281089621       35.2289193980        3.9520637470
  H        42.3239275354       34.4187667743        3.5906075997
  H        22.0880276927        0.6917423262       12.3519239495
  H        11.5971882553       18.7126837471       12.3826046032
  H        52.2650644201       18.4314971127        3.6776741389
  H        49.2549910440       16.4769490655        3.5848772171
  H        10.1501129070       15.7981556380       12.2929579401
  H        50.8501826990       17.6924593986        3.9542014637
  H        10.0459864515       17.3943336003       12.0520723715
  H        20.2145328297        0.0024304075       12.0420301189
  H        39.1837921676       36.1242955658        3.6860375596
 Ni        30.2253576865       17.2551739023        2.6653166194
 Ni        30.8194415099       16.4750308024        0.4186434311
 Ni        29.3356131715       18.0674013826        0.4957710907
 Ni        30.6060947315       16.9312728892       13.8281057088
  O        10.6500069309       14.3650987885        5.4858751026
  O        12.6132687984       14.6576667619        6.5839964041
  O        49.1478447442       16.8459490942        7.9898379680
  O        50.3502948747       20.9357824786        5.6481797866
  O        48.3485612373       20.5932510199        6.6660031254
  O        11.0521192647       17.0534924100        6.5008710916
  O        50.3212468624       20.8816151728       10.4068264754
  O        48.3468310159       20.5867280589        9.3271771748
  O        49.5437779954       18.2483822136       10.0682581075
  O        12.3594294412       18.6245081645        7.9999174076
  O        48.6932376667       14.1486146357        6.7512621321
  O         8.2098727305       14.2104480065        9.3226049556
  O        10.7354703165       14.5067927688       10.6643315580
  O        12.5719518336       14.5829968091        9.3284867924
  O        22.8445319946        2.0435027004        5.4870094589
  O        21.6052157952        3.5921602512        6.5898875709
  O        42.0583130326       34.1374564428        7.9789353207
  O        37.9811843837       33.1397145829        5.5734448685
  O        39.2174482259       31.5761974123        6.6663056247
  O        20.3085709071        1.0396749014        6.5020801396
  O        38.0254094442       33.1870662406       10.4149726306
  O        39.2193385035       31.5840281392        9.3269706100
  O        40.6523578343       33.7694702364       10.0601809097
  O        18.2553095975        1.3764101989        7.9968019173
  O        44.6222080614       35.1005715515        6.7587295930
  O        24.2054039097        0.0000593358        9.3208187062
  O        22.7531624513        2.0585172781       10.5840105288
  O        21.6242939103        3.5960511088        9.3423181827
  O        27.4904971131       18.7513422093        5.4933372052
  O        26.7640213864       16.9346270488        6.6532118254
  O        30.6644948694       19.4051954753        8.0188158017
  O        33.5827964876       16.2775934390        5.6652832852
  O        34.2745040398       18.1678843918        6.7331222820
  O        29.5770285177       17.0579429405        6.5790440223
  O        33.5554692164       16.3458185253       10.4132681015
  O        34.2956315612       18.2490556588        9.4058216747
  O        31.6445665000       18.3193563107       10.1672764796
  O        30.3289125444       15.1647051965        8.0791478805
  O        28.5520906865       21.0335517541        6.8259073396
  O        28.5124504672       20.9527376976        9.3998297155
  O        27.5820095859       18.6131254364       10.7456277846
  O        26.7302598983       16.9867836324        9.4079166361
  O        13.1512364147       18.6926126198       10.5880647038
  O        13.9222585954       16.9169103214        9.4067047594
  O        50.5960243947       19.3500398724        8.0211252552
  O        47.6827689912       16.3270567179       10.4172371658
  O        46.9503154626       18.1755418754        9.3255930766
  O        11.0702132728       17.0152616035        9.4896436943
  O        47.6760972639       16.3357637767        5.6529813309
  O        46.9260092292       18.2356833287        6.6636220083
  O        49.5686971104       18.3177002547        5.9825672479
  O        10.3187114535       15.1003053129        7.9971457018
  O        52.6707900897       21.0278455530        9.2418773149
  O        12.1468193101       20.8910139255        6.6732305770
  O        13.1083838023       18.6135792774        5.3252130102
  O        13.9584638525       16.9873793368        6.6641677463
  O        29.9959812845       14.4298188550       10.6634873398
  O        28.0758262056       14.6592464375        9.4838509953
  O        32.0972777824       16.8983204448        8.0654220001
  O        30.9728803351       20.9566637918       10.4794241656
  O        32.9130384103       20.6595142778        9.3284669846
  O        29.5706766136       17.0815676832        9.5775132804
  O        30.8555685393       20.8904433047        5.6550020621
  O        32.8719729214       20.5858027247        6.6613104035
  O        31.6795750429       18.2435648106        5.9168065889
  O        28.2920291373       18.6812487538        8.0675023329
  O        32.4907026968       14.2145797341        9.3251050526
  O        32.4032125727       14.2191732347        6.8223074706
  O        29.9160234692       14.4320803455        5.4909449348
  O        28.0392380492       14.5880780232        6.7523329157
  O        17.8891744631        1.9666589279       10.6627539326
  O        18.9562237734        3.5271738328        9.4080114994
  O        39.1687114862       34.1388857439        7.9970509652
  O        43.2801765050       33.0590009380       10.3316864836
  O        42.0345056995       31.5064769243        9.2416078093
  O        20.3177938971        1.0368843198        9.4801369009
  O        43.2760810271       33.1826100202        5.5749048712
  O        42.0052528183       31.5841404244        6.5829558753
  O        40.5790672050       33.7750598426        5.9358592288
  O        22.3673612897        1.3846018089        7.9979507082
  O        36.6726972476       35.0998547101        9.2331111930
  O        16.4455777844        0.0645798353        6.6684446296
  O        17.9364917022        2.0434739958        5.3263523810
  O        18.9190055780        3.5931746402        6.6659258452
  O        29.7817335309       18.7552922370        4.0740232069
  O        29.7794490945       19.4926529420       12.0901894172
  O        31.1853058558       16.1967027945        4.0085209364
  O        31.2509135382       16.2030134772       12.0855544884
  O        30.8493002077       15.3216361825       14.9980379652
  O        29.3601765405       18.3081886225       14.5556139332
  O        39.4568469447       35.2437590598        4.0019183042
  O        19.1413084212        0.0046489851       11.9905538748
  O        41.9695152102       35.1726884227        4.0871543074
  O        21.6913458917       -0.0692980145       11.8958798440
  O        51.3651001745       18.6143497036        4.0055827255
  O        10.7514570355       18.7471624059       11.9049155011
  O        50.0796336142       16.4127937332        4.0918411611
  O         9.5243999271       16.4830357450       11.9912031557
 Zr         9.2966319786       16.0527547023        6.1824530085
 Zr        49.8360116580       16.0067661452        9.7464606852
 Zr        22.0734915657        0.0299115760        6.1888646994
 Zr        42.4610886718       35.1537174220        9.8009965055
 Zr        29.5996550431       19.0632759249        6.1996774176
 Zr        29.5864341278       19.1883289964        9.7923636703
 Zr        11.0386416023       19.0514335398        9.8280674796
 Zr        11.0436797044       19.1544767607        6.2515899294
 Zr        31.3558882139       16.1056328392        9.8760658517
 Zr        31.3857135656       16.0160156808        6.2344908117
 Zr        18.6011653591       -0.0008913850        9.7630816206
 Zr        18.5068224017       -0.0068973389        6.2136600393
 Zr        12.3030242020       16.3238861702        7.9907735803
 Zr        48.6155746099       18.8327141857        8.0105655034
 Zr        20.3151580281        2.4736732157        7.9905778804
 Zr        40.6439473214       32.6874313961        7.9779108445
 Zr        28.3544241172       16.3440234104        8.0733198355
 Zr        32.6310383595       18.8423822307        8.0257508869
  H        28.8767224045       17.6584319868        1.9141510003
  H        30.3862779489       20.2472717473       12.2084951049
