     566
 i =      113, E =     -4712.2579510829
  C        11.8586679078       14.0533421155        5.7415479632
  C        12.4560591031       12.8904003766        5.0233076905
  C        11.7044106356       12.1716527652        4.0814595920
  C        12.2807409542       11.1094232133        3.3891307343
  C        13.6212497194       10.7394079153        3.6169831301
  C        14.3543651136       11.4427901860        4.5906449160
  C        13.7815037004       12.5077527244        5.2821866455
  C        14.2607067310        9.6487302218        2.8435579525
  C        14.2557449413        9.6565460152        1.4218541372
  C        13.7424928047       10.7586167384        0.6679302627
  C        49.1265861956       21.2334325123        5.8798081592
  C        48.5496905780       22.4012766292        5.1527098793
  C        49.2996449931       23.0684525186        4.1715607184
  C        48.7326766041       24.1075096527        3.4382887197
  C        47.4021818182       24.5092227378        3.6670166364
  C        46.6713165767       23.8605154591        4.6807029546
  C        47.2338002448       22.8156741374        5.4101146535
  C        46.7719297104       25.5868634956        2.8697075160
  C        46.7608625277       25.5571604158        1.4479550300
  C        47.2607386360       24.4420249452        0.7044849891
  C        14.8596789194        8.5702198891        0.7085684643
  C        14.8916717328        8.5968679449        3.5201859079
  C        49.1132357845       21.2034384887       10.1453270632
  C        48.5278749174       22.3648626043       10.8724188877
  C        49.2668991958       23.0252130752       11.8657237510
  C        48.6905580062       24.0597511091       12.5971993688
  C        47.3603289778       24.4569020470       12.3585713255
  C        46.6401846813       23.8124271457       11.3345785807
  C        47.2137429078       22.7765422788       10.6027785529
  C        46.7217851502       25.5317869167       13.1496107756
  C        46.7332462482       25.5280001636       14.5713172110
  C        47.2485483032       24.4287360858       15.3277221419
  C        40.6184974880       17.0984021716       15.3062078411
  C        40.6271312778       17.1291058475       12.4956899649
  C        11.8827170614       14.0863212673       10.2855544949
  C        12.4717253720       12.9103436389       10.9895749393
  C        11.7142306026       12.1774609696       11.9159825381
  C        12.2806791617       11.0949214174       12.5843587904
  C        13.6193599006       10.7207799110       12.3522768098
  C        14.3572404491       11.4359374701       11.3910812701
  C        13.7919586984       12.5171847981       10.7184117952
  C        14.2529399410        9.6240717912       13.1227404295
  C        14.2516371800        9.6440649739       14.5445851306
  C        13.7417912485       10.7530142646       15.2916747676
  C        22.5136807629        3.2435340742        5.7546743033
  C        23.2335209939        4.3459384919        5.0581953238
  C        24.2319358126        4.0610063547        4.1149048353
  C        24.8641615319        5.0973063783        3.4333380998
  C        24.5132171520        6.4402373046        3.6749495453
  C        23.5438389770        6.7166862851        4.6562097471
  C        22.9070466084        5.6822330277        5.3365184448
  C        25.1203484188        7.5439165227        2.8974340217
  C        25.0874508416        7.5366125427        1.4762875565
  C        24.3836671180        6.5362220645        0.7334905285
  C        38.2979604923       31.9275278501        5.8513684082
  C        37.5560104374       30.8381594907        5.1493829831
  C        36.5899211158       31.1448195261        4.1784574430
  C        35.9587509605       30.1270429114        3.4678396007
  C        36.2777758866       28.7752424246        3.7041134549
  C        37.2133992297       28.4759513210        4.7126763494
  C        37.8484657112       29.4928166241        5.4227741217
  C        35.6673435164       27.6869994352        2.9039490887
  C        35.7094105935       27.7020301964        1.4820858333
  C        36.4234729296       28.7028995552        0.7502845856
  C        25.7048771024        8.6082708516        0.7541994600
  C        25.7206861356        8.6177052224        3.5659217087
  C        38.3316669960       31.9611531954       10.1601981507
  C        37.6179138610       30.8865882861       10.9102395825
  C        36.6828791402       31.1935179817       11.9106668266
  C        36.0761724926       30.1746372227       12.6431870102
  C        36.3901023433       28.8223192862       12.3997681954
  C        37.3066855694       28.5252209666       11.3724474007
  C        37.9147452474       29.5406216405       10.6407963271
  C        35.7769396643       27.7226829947       13.1805525258
  C        35.7646110266       27.7208661714       14.6031351651
  C        36.4481519518       28.7133912836       15.3737144863
  C        46.1351925261       26.6206308229       15.2814302517
  C        46.0879781544       26.5802285802       12.4735454366
  C        22.4596123036        3.2541928678       10.2575761617
  C        23.1519640337        4.3604899687       10.9823766154
  C        24.1533104984        4.0711180640       11.9229014529
  C        24.7806462489        5.0990978512       12.6217284895
  C        24.4259726110        6.4449977185       12.4020913991
  C        23.4475036167        6.7275893011       11.4302638066
  C        22.8155652849        5.6999734757       10.7317213425
  C        25.0571447816        7.5415535021       13.1759252195
  C        25.0552897364        7.5349676932       14.5983683191
  C        24.3666332939        6.5364900330       15.3567675274
  C        26.5639955047       17.8169376237        5.7482238598
  C        25.2565644767       17.8715514332        5.0343536634
  C        24.9985898721       18.8772685365        4.0900238669
  C        23.7858955639       18.9029808032        3.4069688348
  C        22.8003235503       17.9247028450        3.6456773064
  C        23.0526970680       16.9434361492        4.6220847901
  C        24.2663965634       16.9138901476        5.3055479594
  C        21.5353514117       17.9139686581        2.8739138283
  C        21.5493884773       17.9076447185        1.4523908106
  C        22.7620080889       17.7835186145        0.7035561232
  C        34.4416783869       17.1897198331        5.9243004885
  C        35.7350903000       17.1453794228        5.1800720716
  C        35.9458134734       16.1655057057        4.1970342976
  C        37.1240937929       16.1523772312        3.4560760496
  C        38.1255682447       17.1175717011        3.6780133212
  C        37.9181759150       18.0785892661        4.6858119619
  C        36.7363024753       18.0973936445        5.4239856094
  C        39.3778257956       17.1232180281        2.8866469813
  C        39.3686678246       17.1234292368        1.4644938472
  C        38.1582836707       17.2322144613        0.7099639045
  C        20.3095690503       17.9402560489        0.7346977270
  C        20.3071812998       17.9091596912        3.5469597487
  C        34.4164098253       17.2165335883       10.2181554977
  C        35.7273006763       17.1306117008       10.9239177921
  C        35.9573747100       16.1391605098       11.8904210548
  C        37.1519026997       16.1189602630       12.6051959229
  C        38.1464881293       17.0895182895       12.3748537902
  C        37.9250955116       18.0523821019       11.3721908336
  C        36.7295620767       18.0769805291       10.6588490884
  C        39.3981492420       17.1101110694       13.1649922716
  C        39.3787513711       17.1170200070       14.5866711491
  C        38.1630019603       17.2274058470       15.3329845739
  C        35.1228261420       26.6447699385       15.3023052885
  C        35.2010975577       26.6465537478       12.4921465132
  C        26.5875560693       17.8006334018       10.3260826129
  C        25.2805536197       17.8635522178       11.0404645097
  C        25.0272147562       18.8736149677       11.9805690329
  C        23.8052847236       18.9162052521       12.6471444848
  C        22.8102896694       17.9503145616       12.3955168419
  C        23.0610313451       16.9640630173       11.4244806035
  C        24.2821223487       16.9187264145       10.7565698167
  C        21.5397586898       17.9452222229       13.1565570716
  C        21.5510659129       17.9235576502       14.5773215371
  C        22.7623573507       17.7905461234       15.3275063597
  C        14.0486169560       17.8351979203       10.2808691054
  C        15.3598778770       17.9083281180       10.9896493355
  C        15.6216303712       18.9287694072       11.9169608628
  C        16.8356855294       18.9627032392       12.5995122261
  C        17.8196939850       17.9788407640       12.3765765262
  C        17.5646402496       16.9850493382       11.4132947942
  C        16.3502926511       16.9470426179       10.7315031962
  C        19.0847363092       17.9637274529       13.1506118653
  C        19.0697523576       17.9503667731       14.5722816618
  C        17.8546918688       17.8512567237       15.3208640402
  C        46.8020319660       17.2170176985       10.1562407775
  C        45.5073150526       17.1502131755       10.8951938322
  C        45.2958558316       16.1653967916       11.8725681754
  C        44.1109454854       16.1428920442       12.6037021140
  C        43.1067733933       17.1053322787       12.3804801597
  C        43.3145176274       18.0685902048       11.3747383342
  C        44.5001817305       18.0947389095       10.6441698134
  C        41.8536022908       17.1142353085       13.1706764608
  C        41.8629947318       17.1126149084       14.5929831104
  C        43.0742945468       17.2083456481       15.3480170937
  C        20.3098445766       17.9484515615       15.2907582027
  C        20.3139386344       17.9447527123       12.4785825069
  C        46.7854698233       17.2332055999        5.8855515838
  C        45.4846667312       17.1314304163        5.1633884362
  C        45.2662417752       16.1328627475        4.2019991609
  C        44.0795474835       16.1070287231        3.4730641479
  C        43.0810909082       17.0771958040        3.6874012174
  C        43.2910274685       18.0474082552        4.6852929241
  C        44.4785264535       18.0791543221        5.4098146849
  C        41.8328195223       17.0964614035        2.8924657889
  C        41.8527248263       17.1020940821        1.4710814014
  C        43.0693738887       17.2007528243        0.7250131373
  C        46.1528947441       26.6370476565        0.7261876979
  C        46.1621260365       26.6560756628        3.5358162669
  C        14.0383699002       17.8257729330        5.7036459515
  C        15.3484925396       17.8891911441        4.9964635287
  C        15.6173106591       18.9107312446        4.0736386111
  C        16.8383834879       18.9445541669        3.4054175485
  C        17.8149183192       17.9555396089        3.6357590872
  C        17.5510096974       16.9585205680        4.5920786558
  C        16.3323033134       16.9245503176        5.2643580171
  C        19.0816971848       17.9375949612        2.8696705305
  C        19.0683780747       17.9355224376        1.4486141015
  C        17.8541758921       17.8438202838        0.6970275763
  C        28.7311460515       14.0837620451       10.3542193358
  C        28.1391250997       12.9080019462       11.0471064510
  C        28.8709644216       12.1993134606       12.0109816828
  C        28.2873748864       11.1230702903       12.6736804179
  C        26.9597918357       10.7370919945       12.3989129122
  C        26.2512178423       11.4278350435       11.3992072760
  C        26.8322723413       12.5024775776       10.7328440207
  C        26.3025665789        9.6573411662       13.1677992235
  C        26.2944268513        9.6853313621       14.5888337325
  C        26.7921037258       10.8022990444       15.3321854367
  C        32.1899939109       21.2379985848       10.1330638916
  C        32.7883376434       22.4015289734       10.8551465953
  C        32.0218690547       23.1307282485       11.7786929860
  C        32.5958735333       24.1631454457       12.5146389279
  C        33.9514356121       24.5031252916       12.3425480227
  C        34.7021639219       23.7968779608       11.3839390209
  C        34.1316216127       22.7546938727       10.6542423256
  C        34.5740308026       25.5813427240       13.1471324478
  C        34.5387286806       25.5605999113       14.5683808167
  C        34.0116206164       24.4511221040       15.3015104295
  C        25.6926582956        8.6042770442       15.3097648740
  C        25.6675553331        8.6040427990       12.4974192818
  C        32.0918822222       21.1607624284        5.8373363954
  C        32.6550499820       22.3348771792        5.1049895419
  C        31.9234785375       22.9783445048        4.0950032573
  C        32.4888170361       24.0318013957        3.3784070669
  C        33.8021726526       24.4675211505        3.6460150945
  C        34.5138853307       23.8373190078        4.6852792447
  C        33.9516323106       22.7846637437        5.4020696293
  C        34.4415649119       25.5561101517        2.8689662761
  C        34.4728949124       25.5466803469        1.4462295105
  C        33.9816746166       24.4438584081        0.6781888219
  C        40.6128680933       17.0971307798        0.7514266340
  C        40.6038506234       17.1262845937        3.5615968321
  C        28.7456897676       14.0612822165        5.8095637215
  C        28.1408459249       12.9136111448        5.0752373183
  C        28.8711258402       12.2339914745        4.0884719616
  C        28.2928806261       11.1757907635        3.3924543316
  C        26.9687583487       10.7721760183        3.6574845562
  C        26.2565366466       11.4393313763        4.6717177884
  C        26.8328914034       12.4978022548        5.3700212611
  C        26.3271204573        9.6819146318        2.8862151927
  C        26.3082169498        9.6977247202        1.4644478563
  C        26.7969311446       10.8091547358        0.7082793942
  C        18.1354550318        3.1810355963       10.3171647345
  C        17.4061314310        4.2781943865       11.0158471991
  C        16.3900419437        3.9997513761       11.9429315047
  C        15.7421869846        5.0396718290       12.6063826564
  C        16.0943621872        6.3833845098       12.3670721708
  C        17.0842439033        6.6530138099       11.4038651679
  C        17.7334725638        5.6157193138       10.7388527108
  C        15.4697515758        7.4909664873       13.1300745844
  C        15.4849511310        7.4902531182       14.5517866319
  C        16.1867137165        6.4967618240       15.3049229829
  C        42.9457654688       31.8595707578       10.0727675158
  C        43.6461812845       30.7718070520       10.8167116357
  C        44.5913871507       31.0931893323       11.8030517419
  C        45.1971366107       30.0876696033       12.5507320875
  C        44.8710710844       28.7345756549       12.3355907120
  C        43.9456539318       28.4201764987       11.3220192800
  C        43.3368277834       29.4252958018       10.5739541513
  C        45.4885977858       27.6552683734       13.1387948607
  C        45.4925579355       27.6807925883       14.5604925560
  C        44.8054987074       28.6888707131       15.3071054059
  C        14.8557976450        8.5626404166       15.2641373102
  C        14.8743607585        8.5626388154       12.4514623261
  C        42.9464225991       31.9617432462        5.8089137398
  C        43.6916224142       30.8855149873        5.0953996858
  C        44.6562065530       31.1914074819        4.1231054217
  C        45.2777040307       30.1718018038        3.4053609396
  C        44.9538696142       28.8215100471        3.6429921669
  C        44.0204147433       28.5238535835        4.6537944019
  C        43.3921990209       29.5406407420        5.3659846559
  C        45.5628142607       27.7240502672        2.8577548656
  C        45.5330115864       27.7172625211        1.4364644597
  C        44.8267586991       28.7075263704        0.6834971013
  C        35.0916143861       26.6366399787        0.7477900425
  C        35.0503531596       26.6138621527        3.5577680954
  C        18.1485862147        3.2469480963        5.7064983747
  C        17.4300132967        4.3437029874        4.9971164286
  C        16.4144738906        4.0524373800        4.0739030803
  C        15.7661437955        5.0830697484        3.3985393985
  C        16.1211125811        6.4282778501        3.6209601964
  C        17.1129385368        6.7116602909        4.5777393741
  C        17.7606481204        5.6827477748        5.2574824098
  C        15.4904487897        7.5239351199        2.8485662613
  C        15.4961226217        7.5072331799        1.4274309784
  C        16.1929989800        6.5056100405        0.6807369882
  H        10.6723441607       12.4659147255        3.9043090736
  H        11.6944746763       10.5510470254        2.6624948006
  H        15.3913410097       11.1680544933        4.7725011302
  H        14.3509495061       13.0706981376        6.0178518219
  H        13.3756372197       11.6308318456        1.2011960458
  H        50.3223291246       22.7483603438        3.9867846054
  H        49.3191062250       24.6226985965        2.6806159609
  H        45.6418921196       24.1614453535        4.8639878488
  H        46.6629094500       22.2905578615        6.1723852868
  H        47.6292458443       23.5756417539        1.2461834096
  H        14.8722989065        8.5882108302        4.6084986014
  H        50.2867978495       22.7020665116       12.0609175520
  H        49.2688235377       24.5749371453       13.3609804132
  H        45.6109792070       24.1100941019       11.1451111461
  H        46.6531405612       22.2547375274        9.8308137439
  H        47.6073593513       23.5516164160       14.7968497425
  H        40.6298327978       17.1000478503       11.4076936541
  H        48.6870957293       14.0950623058        7.8000019731
  H        10.6808810076       12.4668132326       12.0936204044
  H        11.6889124726       10.5247585979       13.2972597955
  H        15.3925632196       11.1577793430       11.2049281722
  H        14.3643519549       13.0862549053        9.9896930071
  H        13.3750086062       11.6216614858       14.7530657530
  H        47.9301345600       14.2184250959        9.7109036841
  H        47.7799386462       14.3736407404        6.4953662621
  H        49.0832469679       18.5519576169       10.8671954992
  H        10.4161185712       14.1342619078        7.9988657118
  H        24.4894957266        3.0212481626        3.9261166580
  H        25.6380963929        4.8768888364        2.7013201195
  H        23.2665488372        7.7510194055        4.8486789627
  H        22.1360745845        5.8858880300        6.0756065366
  H        23.8260014165        5.7784600716        1.2760074315
  H        36.3582493064       32.1889862631        3.9818712372
  H        35.2108301939       30.3711460708        2.7165518891
  H        37.4688834071       27.4357849762        4.9043463801
  H        38.5961390122       29.2670033018        6.1795508663
  H        36.9834450181       29.4529791297        1.3011463535
  H        25.7615595972        8.5995475746        4.6534991594
  H        36.4506346072       32.2371182415       12.1108020235
  H        35.3439884900       30.4194523747       13.4095003828
  H        37.5635700313       27.4859871419       11.1781047946
  H        38.6429867560       29.3153252250        9.8654767106
  H        37.0279351528       29.4710105501       14.8542577057
  H        46.1096978466       26.5878108603       11.3855169218
  H        44.6684822199       35.1163382289        7.8140009217
  H        24.4306309877        3.0323398804       12.0869377010
  H        25.5615093590        4.8692657161       13.3434876640
  H        23.1633136275        7.7628316699       11.2528822490
  H        22.0442684750        5.9141273460        9.9955370645
  H        23.7952621330        5.7794581115       14.8274650253
  H        44.9545033855       34.3907498071        9.6952729370
  H        44.9024730742       34.2069574973        6.4908017802
  H        40.6669761002       33.2096633972       10.8533143956
  H        23.1502130250        1.9581235351        8.0056629528
  H        25.7587246725       19.6332328766        3.9075822246
  H        23.5867681091       19.6867642847        2.6793650847
  H        22.3004308792       16.1806716798        4.8122965512
  H        24.4769436705       16.1430989233        6.0431431360
  H        23.6968036297       17.6489650306        1.2400674748
  H        35.1681861900       15.4257455331        4.0225467683
  H        37.2850665558       15.3847240732        2.7022600838
  H        38.6826454136       18.8327397345        4.8612551924
  H        36.5603600216       18.8546390710        6.1845570713
  H        37.2197358954       17.3518734966        1.2437030003
  H        20.3051078356       17.9360656539        4.6351555322
  H        35.1859650132       15.3955387581       12.0772303877
  H        37.3275032670       15.3472363610       13.3515069724
  H        38.6871684274       18.8065358614       11.1867597766
  H        36.5390587024       18.8375355805        9.9052596241
  H        37.2273787137       17.3424417874       14.7933495174
  H        35.1936011332       26.6664228953       11.4039743493
  H        28.5038439338       21.0985109235        7.7099565362
  H        25.7985916183       19.6177071767       12.1678889435
  H        23.6059255354       19.7029901996       13.3715229217
  H        22.3010722914       16.2108922768       11.2268885604
  H        24.4917826932       16.1466928049       10.0201686140
  H        23.6974730728       17.6608628539       14.7908949437
  H        28.9089638187       21.7457092894        9.6476513857
  H        29.2235462996       21.6731312518        6.3814800625
  H        32.0694615861       18.6009422739       10.9434055639
  H        27.3416188443       19.0725032806        7.9977045562
  H        14.8622603134       19.6882911966       12.0888256087
  H        17.0354987736       19.7571041240       13.3154571120
  H        18.3157896808       16.2187752045       11.2329788783
  H        16.1393779719       16.1663575254       10.0045333601
  H        16.9164972536       17.7483782464       14.7835554842
  H        46.0775704014       15.4313592271       12.0535166939
  H        43.9490641437       15.3720105911       13.3539649295
  H        42.5478360804       18.8198497045       11.1967548258
  H        44.6763605374       18.8534019715        9.8851560688
  H        44.0144333002       17.3205252394       14.8155950589
  H        20.3171682166       17.9794339036       11.3905664095
  H        46.0416460521       15.3901976218        4.0282987994
  H        43.9131461405       15.3305623675        2.7295364501
  H        42.5260336211       18.8016897955        4.8574383601
  H        44.6605597411       18.8466054982        6.1581335084
  H        44.0059542957       17.3062683594        1.2649489715
  H        46.1991271755       26.6827448744        4.6232529314
  H        52.7412274180       21.0625960547        8.1946517137
  H        14.8605072944       19.6723385861        3.8995902922
  H        17.0502537937       19.7409207875        2.6952438411
  H        18.2981229502       16.1886501007        4.7735622388
  H        16.1113775841       16.1450537007        5.9894429655
  H        16.9154690270       17.7352028922        1.2321292493
  H        52.3224003522       21.6735579445        6.2946495221
  H        52.0131591525       21.7022458502        9.4953959866
  H        49.0676426781       18.6080969662        5.2039633032
  H        13.2474689728       19.0162937458        7.9746562580
  H        29.8892352626       12.5137071262       12.2297154043
  H        28.8540778448       10.5705991369       13.4199038918
  H        25.2253428701       11.1382889544       11.1812754591
  H        26.2833531498       13.0588632016        9.9771580491
  H        27.1441908916       11.6761778346       14.7921077513
  H        30.9731808656       22.8751864753       11.9105487731
  H        31.9961635960       24.7237502153       13.2285022330
  H        35.7509222140       24.0506784200       11.2434407833
  H        34.7170114553       22.1854745613        9.9356521257
  H        33.6571451735       23.5835347942       14.7520765655
  H        25.6945323157        8.5838126529       11.4093998455
  H        30.9166055606       22.6310020206        3.8740212407
  H        31.9118617006       24.5317514153        2.6034895164
  H        35.5305224933       24.1600310479        4.9001102117
  H        34.5089680584       22.2785047737        6.1866397749
  H        33.6058185180       23.5691278259        1.2011058271
  H        40.6005683717       17.0975618679        4.6495544794
  H        32.5100634739       14.1548119885        8.2548220932
  H        29.8915045309       12.5493402519        3.8835747511
  H        28.8660820256       10.6449722008        2.6355296826
  H        25.2319662038       11.1399218006        4.8825587686
  H        26.2794718806       13.0292858038        6.1404401226
  H        27.1512920133       11.6885332089        1.2382399603
  H        33.3083464870       14.2336035304        6.4629529506
  H        33.3959231661       14.4023981126        9.6196546667
  H        32.1108493350       18.4087221917        5.1232872860
  H        30.1896563120       14.1448566204        8.0980210691
  H        16.1178422901        2.9632340994       12.1290341432
  H        14.9524765111        4.8202798139       13.3217505259
  H        17.3670875813        7.6858685780       11.2112376018
  H        18.5159708492        5.8184630691       10.0115203002
  H        16.7535176827        5.7396246803       14.7713930719
  H        44.8273918236       32.1403093206       11.9774197250
  H        45.9368054936       30.3415183858       13.3068395844
  H        43.6834324351       27.3780449217       11.1515622584
  H        42.6006679294       29.1899780311        9.8088428257
  H        44.2303272701       29.4367608231       14.7687790987
  H        14.8507946230        8.5459174199       11.3632375171
  H        44.8998052462       32.2340877944        3.9316962680
  H        46.0246359333       30.4130438089        2.6521501583
  H        43.7634931459       27.4841194449        4.8453842076
  H        42.6457549948       29.3179349740        6.1245087276
  H        44.2684394575       29.4705526362        1.2180817564
  H        35.0000114686       26.6256116964        4.6449642168
  H        36.6055114197       35.1340798166        8.1805682494
  H        16.1431890850        3.0128764567        3.9044229367
  H        14.9735951184        4.8562768665        2.6886895757
  H        17.3969079568        7.7470730083        4.7542105557
  H        18.5439815237        5.8932366309        5.9817413452
  H        16.7647216100        5.7555854092        1.2191730099
  H        36.2792492452       34.4819859571        6.2731452768
  H        36.3818012639       34.2086343173        9.4991219311
  H        40.5793046813       33.2022413167        5.1535246653
  H        17.4710256014        1.9476899569        7.9740085682
  H        29.3032142061       19.0831352726       12.8094474485
  H        28.7712517829       18.6328743743        3.7085669531
  H        31.6456078397       15.6132689236        3.5673852749
  H        32.3174036162       16.3220889297       12.3777104377
  H        28.2724056347       17.6521961779       14.2726076773
  H        32.3706899676       16.9412095913        1.3395779797
  H        18.8542039084        0.8690630321       12.3353428867
  H        40.5283434992       35.2287490106        3.9520030876
  H        42.3245207532       34.4195336559        3.5897581072
  H        22.0873716794        0.6922531999       12.3514376791
  H        11.5966901112       18.7127455774       12.3830051376
  H        52.2647844837       18.4315567024        3.6776055973
  H        49.2552784992       16.4761978916        3.5841584084
  H        10.1502041938       15.7981747077       12.2926503416
  H        50.8499963829       17.6925985254        3.9539526661
  H        10.0461069417       17.3946025814       12.0519499972
  H        20.2159148558        0.0023104650       12.0417521619
  H        39.1839854648       36.1243447146        3.6863832012
 Ni        30.5586956766       17.4585198540        2.6644523646
 Ni        30.8570689953       16.3568018955       -0.3315549585
 Ni        29.7205327083       18.2303526521        0.0888372844
 Ni        30.3126465791       16.8634474349       13.4885797466
  O        10.6498561362       14.3651398218        5.4858304994
  O        12.6130710589       14.6573998182        6.5838712766
  O        49.1478614728       16.8458927168        7.9897802446
  O        50.3500487954       20.9363559834        5.6482767393
  O        48.3484467686       20.5933003077        6.6659930217
  O        11.0511469877       17.0539299728        6.5007187605
  O        50.3209825635       20.8816943490       10.4068805677
  O        48.3467312883       20.5867062221        9.3271400368
  O        49.5439467689       18.2483685842       10.0683359137
  O        12.3590349736       18.6246547159        7.9997842464
  O        48.6931868326       14.1486213972        6.7512942222
  O         8.2098440291       14.2105111310        9.3225965641
  O        10.7350718636       14.5067544800       10.6643159775
  O        12.5716572216       14.5826955711        9.3286037748
  O        22.8442430804        2.0418104311        5.4877019685
  O        21.6055850397        3.5920463004        6.5894140953
  O        42.0582230567       34.1374085881        7.9787714991
  O        37.9812568978       33.1361834417        5.5719663941
  O        39.2169857028       31.5748048340        6.6653573133
  O        20.3083892840        1.0395177255        6.5020114237
  O        38.0242775439       33.1846352361       10.4158681250
  O        39.2189086948       31.5832729612        9.3269094923
  O        40.6523383166       33.7693688943       10.0600357189
  O        18.2556381762        1.3764359028        7.9967501151
  O        44.6222689737       35.1005015264        6.7588009796
  O        24.2054837275       -0.0000786650        9.3206914603
  O        22.7525290823        2.0560346973       10.5831085989
  O        21.6238335321        3.5950361970        9.3420580922
  O        27.4590200575       18.6786256083        5.4143327649
  O        26.6917839277       16.9261391247        6.6544930280
  O        30.6232738457       19.3470015098        7.9922353954
  O        33.5923339375       16.2717299745        5.6763294581
  O        34.2698160506       18.1683077119        6.7390433992
  O        29.5419936161       17.0067212293        6.5730796288
  O        33.5287308652       16.3339048988       10.5015413989
  O        34.2577897062       18.1829348233        9.4048203187
  O        31.5633626746       18.3111663543       10.1681399345
  O        30.2869994993       15.1108318123        8.0897037070
  O        28.5522135138       21.0254005060        6.6671046342
  O        28.5089800742       20.9604083659        9.2389204272
  O        27.5029148051       18.6217471415       10.6625756461
  O        26.6850352878       16.9237055098        9.4002912831
  O        13.1478409601       18.6938392343       10.5861243457
  O        13.9185911521       16.9161230970        9.4044324252
  O        50.5961118092       19.3502920561        8.0209200553
  O        47.6814145248       16.3273462239       10.4174414071
  O        46.9510951210       18.1760660589        9.3248345294
  O        11.0695041500       17.0155646220        9.4896501001
  O        47.6753107883       16.3359940662        5.6525755419
  O        46.9259933838       18.2359509596        6.6636833828
  O        49.5684312017       18.3177793983        5.9822999246
  O        10.3187623490       15.1001173038        7.9971321112
  O        52.6707085006       21.0279972519        9.2418235346
  O        12.1468158788       20.8913508509        6.6733162476
  O        13.1045236735       18.6142035003        5.3262010350
  O        13.9552802074       16.9864105593        6.6652247729
  O        29.9183031181       14.4399140990       10.6628027805
  O        27.9968317110       14.6564921632        9.4790546251
  O        32.0635700052       16.8469977741        8.0876673325
  O        30.9682563063       20.9536546272       10.4031440473
  O        32.9459722089       20.5911066509        9.3312332118
  O        29.5027951677       17.0726305036        9.5761796429
  O        30.8844924540       20.8108216152        5.5737448023
  O        32.8684914963       20.5800011748        6.6661314473
  O        31.6725528601       18.2344295713        5.9743685743
  O        28.2273788827       18.6746749791        7.9942063409
  O        32.4854017977       14.2158238527        9.3290354678
  O        32.4053772290       14.2146790083        6.8226397587
  O        29.9186882811       14.4357103505        5.4855361269
  O        28.0354905388       14.5832456083        6.7433155709
  O        17.8891882166        1.9665740845       10.6627997374
  O        18.9561464128        3.5271152704        9.4079704389
  O        39.1684819160       34.1386638222        7.9970962359
  O        43.2801661189       33.0588266269       10.3317263716
  O        42.0343436625       31.5064269368        9.2415434725
  O        20.3174202906        1.0364098015        9.4798560557
  O        43.2761045135       33.1825489304        5.5748416888
  O        42.0052103042       31.5840991512        6.5829326096
  O        40.5788531719       33.7749288783        5.9356265729
  O        22.3673406512        1.3845201335        7.9979045198
  O        36.6728062876       35.0996796150        9.2332936267
  O        16.4456819488        0.0641238675        6.6682637017
  O        17.9364003703        2.0432084922        5.3263954875
  O        18.9189477783        3.5931508695        6.6658219447
  O        29.7009789250       18.6106283966        4.0000672668
  O        29.5276854722       19.6344198083       12.0024292685
  O        31.3864545433       16.3906519212        4.0956138727
  O        31.3904297896       16.1220235560       12.1506928488
  O        31.5605688650       16.4001961480        1.4146306593
  O        29.1425018338       18.0986338236       14.2418999061
  O        39.4568756215       35.2436302935        4.0019581663
  O        19.1420384449        0.0046387186       11.9904270142
  O        41.9694678909       35.1726837212        4.0869781475
  O        21.6911762534       -0.0694499523       11.8960225409
  O        51.3647462965       18.6143983231        4.0052929235
  O        10.7511214777       18.7471585979       11.9050594220
  O        50.0795641626       16.4127321766        4.0917330007
  O         9.5243762849       16.4831070781       11.9911780063
 Zr         9.2971478959       16.0526708815        6.1822503997
 Zr        49.8365656461       16.0068293255        9.7465422374
 Zr        22.0737501493        0.0306745634        6.1885813901
 Zr        42.4612468644       35.1540431355        9.8008977135
 Zr        29.5786577857       19.0100133770        6.1605521720
 Zr        29.5168198894       19.1957829249        9.7376386200
 Zr        11.0383239873       19.0519796385        9.8280041677
 Zr        11.0436510778       19.1549937025        6.2512564993
 Zr        31.2764002838       16.0642595723        9.8959004923
 Zr        31.3710378994       15.9888374642        6.2536081639
 Zr        18.6016029017       -0.0006678751        9.7634872329
 Zr        18.5070614751       -0.0071581429        6.2136302937
 Zr        12.3017775795       16.3231153860        7.9907593646
 Zr        48.6167511376       18.8329960018        8.0103022327
 Zr        20.3156543693        2.4743304937        7.9901443353
 Zr        40.6437728999       32.6879180761        7.9777010840
 Zr        28.3029215657       16.3100697732        8.0612598711
 Zr        32.5993178578       18.8031918896        8.0245665782
  H        29.4637544567       17.9407057315        1.5990906215
  H        30.2680121802       20.2274999124       12.2213013379
