     571
 i =      111, E =     -4761.5611666675
  C        11.8586755575       14.0535960123        5.7415800171
  C        12.4561964100       12.8905990426        5.0232660117
  C        11.7045745176       12.1718656572        4.0814160738
  C        12.2809234391       11.1096532277        3.3890383917
  C        13.6214036824       10.7396616091        3.6169674252
  C        14.3544834475       11.4430221488        4.5906500764
  C        13.7816241011       12.5080143023        5.2821620714
  C        14.2609454812        9.6489957679        2.8435851201
  C        14.2564620113        9.6570026732        1.4218840506
  C        13.7434398543       10.7591906337        0.6679698234
  C        49.1267336872       21.2332409647        5.8797190420
  C        48.5499715246       22.4011154520        5.1526106995
  C        49.3000893547       23.0686259759        4.1718016573
  C        48.7331300141       24.1077323841        3.4385868769
  C        47.4024845481       24.5091595245        3.6670049145
  C        46.6714105857       23.8600596870        4.6802852960
  C        47.2338962218       22.8151949719        5.4096689039
  C        46.7722657113       25.5868672217        2.8697236603
  C        46.7614334338       25.5573691745        1.4479579741
  C        47.2615115209       24.4423527607        0.7044464707
  C        14.8603649963        8.5706328090        0.7086345164
  C        14.8914898364        8.5969139249        3.5202427666
  C        49.1131753615       21.2034864388       10.1454215308
  C        48.5278199535       22.3648248131       10.8725287351
  C        49.2671582409       23.0258620907       11.8651570903
  C        48.6907764112       24.0604092646       12.5965762425
  C        47.3602079169       24.4568397341       12.3586022855
  C        46.6396478496       23.8115728464       11.3354151507
  C        47.2132509607       22.7756684540       10.6036703998
  C        46.7217385354       25.5317964579       13.1496279126
  C        46.7336534757       25.5282346717       14.5713267817
  C        47.2492444251       24.4290795199       15.3276860076
  C        40.6248204996       17.1017932804       15.3094295793
  C        40.6316358081       17.1185581264       12.4997688216
  C        11.8829358792       14.0865836739       10.2854592554
  C        12.4722567934       12.9106882515       10.9896793584
  C        11.7147989937       12.1776519708       11.9159500849
  C        12.2813581363       11.0951815962       12.5843853404
  C        13.6200946656       10.7212829376       12.3523918132
  C        14.3579887594       11.4366629148       11.3913900330
  C        13.7925912978       12.5178537155       10.7187015856
  C        14.2537159110        9.6245436058       13.1228106121
  C        14.2526421887        9.6446305571       14.5446509608
  C        13.7429037920       10.7536521219       15.2917132704
  C        22.5095660476        3.2437832785        5.7529577613
  C        23.2198821168        4.3506316716        5.0517706292
  C        24.2155239748        4.0733708319        4.1036734665
  C        24.8376496100        5.1150920353        3.4206812688
  C        24.4791446035        6.4553895232        3.6661621482
  C        23.5116544506        6.7242981688        4.6511417724
  C        22.8849967485        5.6843874852        5.3324397104
  C        25.0810337274        7.5632345276        2.8904594503
  C        25.0547827087        7.5549005166        1.4691074980
  C        24.3524706611        6.5554308980        0.7232235163
  C        38.2973431397       31.9278064947        5.8519546038
  C        37.5550007804       30.8393350705        5.1516042078
  C        36.5896840335       31.1461013943        4.1798760537
  C        35.9589610489       30.1281804781        3.4695256020
  C        36.2778018884       28.7765102198        3.7068497965
  C        37.2117697669       28.4773000338        4.7169931302
  C        37.8464776031       29.4941303903        5.4269193258
  C        35.6690437719       27.6880919844        2.9066758946
  C        35.7108340814       27.7038188746        1.4848400304
  C        36.4221387123       28.7062357836        0.7524427380
  C        25.6799315386        8.6231980685        0.7490335874
  C        25.6753638542        8.6396590762        3.5612354537
  C        38.3303516275       31.9607238508       10.1604102478
  C        37.6139381633       30.8883593140       10.9099052065
  C        36.6813673930       31.1984415637       11.9120072784
  C        36.0716755210       30.1818880160       12.6452359934
  C        36.3793720892       28.8281912513       12.4011066591
  C        37.2927240878       28.5280964175       11.3715209720
  C        37.9042044951       29.5410935420       10.6392647237
  C        35.7649188783       27.7297663684       13.1830978527
  C        35.7594706559       27.7253916451       14.6057824353
  C        36.4439253803       28.7176228071       15.3757625520
  C        46.1355724665       26.6208179951       15.2814740889
  C        46.0875358971       26.5800063025       12.4735806446
  C        22.4593853242        3.2548902330       10.2567890902
  C        23.1511429493        4.3643841176       10.9799695168
  C        24.1532574274        4.0795846800       11.9208141020
  C        24.7784880698        5.1109070312       12.6171551199
  C        24.4213345016        6.4555940426       12.3940517847
  C        23.4424025275        6.7338344337       11.4216584674
  C        22.8123286926        5.7026900042       10.7261685725
  C        25.0498140818        7.5543129761       13.1681506531
  C        25.0394081593        7.5497138436       14.5905839987
  C        24.3431201155        6.5542614871       15.3464271207
  C        26.6410796191       17.8251063268        5.7482113251
  C        25.3287960731       17.8794494017        5.0334925651
  C        25.0732420146       18.8704905631        4.0726919261
  C        23.8539448403       18.9002379451        3.3984813438
  C        22.8545203891       17.9406382365        3.6598507591
  C        23.1065766259       16.9734296225        4.6513336572
  C        24.3263352430       16.9402874875        5.3259271793
  C        21.5792775201       17.9298316450        2.8988573184
  C        21.5783242993       17.9045880055        1.4762186456
  C        22.7828162946       17.7743493045        0.7150219632
  C        34.4968367662       17.2241601425        5.9965312944
  C        35.7751862409       17.1741876861        5.2262228109
  C        35.9752211139       16.1811008475        4.2548191837
  C        37.1400424670       16.1663690686        3.4919141922
  C        38.1392227949       17.1394052835        3.6866391397
  C        37.9412836959       18.1157230641        4.6812415273
  C        36.7708425301       18.1395402307        5.4362265334
  C        39.3874715150       17.1363081075        2.8895754602
  C        39.3766228963       17.1328325009        1.4682106537
  C        38.1655325013       17.2433207306        0.7155173690
  C        20.3316670099       17.9254294519        0.7679412931
  C        20.3544562914       17.9373031346        3.5814414603
  C        34.4248563517       17.2137685714       10.2263105423
  C        35.7344308212       17.1284746112       10.9329312114
  C        35.9483647835       16.1561604955       11.9212202629
  C        37.1437788379       16.1320000207       12.6336889996
  C        38.1521200679       17.0823023717       12.3805564663
  C        37.9447523072       18.0270136724       11.3579688934
  C        36.7492064109       18.0538746546       10.6453604806
  C        39.4029728073       17.1044286298       13.1697526976
  C        39.3844912679       17.1201182921       14.5913816662
  C        38.1694932852       17.2374272888       15.3384878095
  C        35.1227911485       26.6464844518       15.3053234636
  C        35.1815987802       26.6574621415       12.4954511244
  C        26.5734621002       17.8241255949       10.3241806051
  C        25.2584496462       17.8687694640       11.0326623816
  C        24.9931465353       18.8741253476       11.9749021729
  C        23.7753549337       18.8983506681       12.6496131129
  C        22.7927482864       17.9182019027       12.4039856457
  C        23.0524417009       16.9380583361       11.4291682935
  C        24.2714059697       16.9110323192       10.7540927561
  C        21.5283032221       17.8996523137       13.1759978130
  C        21.5519188512       17.8880617137       14.5973062106
  C        22.7699672905       17.7671599863       15.3387445880
  C        14.0464643946       17.8286538228       10.2890501214
  C        15.3508193381       17.8850938298       11.0149481565
  C        15.6076611759       18.8878805435       11.9629280702
  C        16.8165738518       18.9081192369       12.6560746470
  C        17.8028896391       17.9283605361       12.4233155087
  C        17.5507548334       16.9497212785       11.4433068598
  C        16.3413138501       16.9249004541       10.7518059661
  C        19.0721149900       17.9104186837       13.1921880781
  C        19.0709425099       17.9067797618       14.6147528139
  C        17.8641123487       17.8098950590       15.3766033874
  C        46.8025527795       17.2165145747       10.1563135641
  C        45.5089485102       17.1482321551       10.8955457168
  C        45.3027723484       16.1674470458       11.8781395070
  C        44.1187278710       16.1437015381       12.6102592140
  C        43.1103720443       17.1006103670       12.3824861841
  C        43.3126867566       18.0592617074       11.3712048159
  C        44.4976615690       18.0870127891       10.6398828257
  C        41.8583244921       17.1093253013       13.1736072393
  C        41.8689571095       17.1138052131       14.5956359063
  C        43.0806392867       17.2139473526       15.3492044531
  C        20.3177900419       17.9156142328       15.3228315488
  C        20.2962035889       17.8906772169       12.5095303348
  C        46.7872203918       17.2333058715        5.8864954617
  C        45.4879648665       17.1329904381        5.1646853613
  C        45.2717663204       16.1373474810        4.1999711681
  C        44.0861913029       16.1139695550        3.4700032191
  C        43.0880562146       17.0834992190        3.6876147477
  C        43.2956859109       18.0503614901        4.6890474002
  C        44.4820882251       18.0798930564        5.4144791293
  C        41.8409366435       17.1046264780        2.8933529524
  C        41.8604165327       17.1093430111        1.4724709434
  C        43.0766998024       17.2089627762        0.7260977243
  C        46.1533690554       26.6372320743        0.7262268323
  C        46.1621296854       26.6558666174        3.5358786858
  C        14.0457394525       17.8319808011        5.7087548669
  C        15.3673708588       17.9067026922        5.0185460515
  C        15.6411859301       18.9218127598        4.0897345061
  C        16.8706416282       18.9593332737        3.4354960708
  C        17.8542528867       17.9809054748        3.6842106685
  C        17.5873183685       16.9948464771        4.6514334670
  C        16.3598821116       16.9567943043        5.3090836918
  C        19.1216116396       17.9547923147        2.9148951224
  C        19.0968526048       17.9282641498        1.4932983864
  C        17.8767736198       17.8195777247        0.7528565855
  C        28.8061499039       14.0900588594       10.3990624200
  C        28.1908057915       12.9163366317       11.0827450151
  C        28.9149763152       12.1679424002       12.0222339760
  C        28.3137629814       11.0927281374       12.6711652523
  C        26.9745344432       10.7435827266       12.4047166825
  C        26.2718809453       11.4720725632       11.4284664226
  C        26.8711424535       12.5471647389       10.7773832944
  C        26.3037792347        9.6649902472       13.1652424462
  C        26.2906954579        9.6923246877       14.5859341052
  C        26.7995481256       10.8032759378       15.3310320895
  C        32.1803596894       21.2387806218       10.1482348328
  C        32.7774767624       22.4028269505       10.8686497261
  C        32.0267816573       23.0870846578       11.8372834300
  C        32.5968355949       24.1270994591       12.5653017847
  C        33.9339455294       24.5122132273       12.3467167976
  C        34.6673281105       23.8469381753       11.3460398209
  C        34.0994952674       22.8013750913       10.6196028732
  C        34.5601520906       25.5881432099       13.1501439166
  C        34.5396164813       25.5613257984       14.5721105468
  C        34.0269890455       24.4456025758       15.3064480017
  C        25.6769999996        8.6169487159       15.3046551567
  C        25.6666796059        8.6151226715       12.4916879297
  C        32.0894591757       21.1679558162        5.8461757388
  C        32.6543736919       22.3398359177        5.1111973491
  C        31.9234532600       22.9855428289        4.1022691707
  C        32.4920436671       24.0356100577        3.3829551014
  C        33.8069783995       24.4673587493        3.6492094485
  C        34.5179500572       23.8353588040        4.6877015442
  C        33.9532686063       22.7846560303        5.4054612240
  C        34.4475858778       25.5554519494        2.8725204714
  C        34.4812433031       25.5450602061        1.4500835971
  C        33.9984878189       24.4382104368        0.6830094647
  C        40.6201847272       17.1037961479        0.7541615460
  C        40.6133086119       17.1377701817        3.5637373308
  C        28.7401615511       14.0602550839        5.8198218992
  C        28.1214095377       12.9249254194        5.0723498188
  C        28.8625551233       12.2019071537        4.1251747959
  C        28.2754294531       11.1501246579        3.4259430824
  C        26.9316908463       10.7917005659        3.6529424574
  C        26.2059165580       11.5018726892        4.6271189114
  C        26.7909091784       12.5564280048        5.3255882959
  C        26.2889457797        9.6999345606        2.8827175284
  C        26.2852004385        9.7097431106        1.4614619867
  C        26.7953656048       10.8125866475        0.7069756807
  C        18.1352542456        3.1807648693       10.3171896935
  C        17.4058287945        4.2780219919       11.0157678700
  C        16.3904084886        3.9996315901       11.9435898069
  C        15.7426347815        5.0396045825       12.6070733420
  C        16.0942198074        6.3833544663       12.3670886312
  C        17.0832279096        6.6528957559       11.4029402226
  C        17.7323439173        5.6155638934       10.7379057365
  C        15.4699980081        7.4911014476       13.1301318789
  C        15.4854500591        7.4905240221       14.5518436968
  C        16.1869724685        6.4968971734       15.3050333513
  C        42.9456818592       31.8593415033       10.0728433777
  C        43.6459598530       30.7716954682       10.8167948604
  C        44.5915823528       31.0929880334       11.8028009074
  C        45.1972370057       30.0874271897       12.5504632787
  C        44.8706547969       28.7343761104       12.3357119765
  C        43.9446701949       28.4200645922       11.3226350104
  C        43.3358969440       29.4252233863       10.5745791886
  C        45.4883409167       27.6551188087       13.1388820839
  C        45.4926930907       27.6808509746       14.5605720544
  C        44.8055291981       28.6888311917       15.3072135045
  C        14.8566095133        8.5630968541       15.2642000402
  C        14.8746895628        8.5628605473       12.4515390344
  C        42.9462656071       31.9613451651        5.8088845671
  C        43.6914735093       30.8852479998        5.0954864456
  C        44.6562861648       31.1911346182        4.1233752322
  C        45.2777896866       30.1715372113        3.4056725555
  C        44.9537341522       28.8212344312        3.6430714868
  C        44.0198953249       28.5235835101        4.6535199214
  C        43.3916239477       29.5403618427        5.3656737981
  C        45.5628692950       27.7238831336        2.8578303471
  C        45.5332780156       27.7173007844        1.4365339550
  C        44.8268490420       28.7074721014        0.6836068143
  C        35.0953748503       26.6370469905        0.7508804820
  C        35.0537973710       26.6144220357        3.5612218727
  C        18.1483700264        3.2467688541        5.7065830850
  C        17.4296130216        4.3436172322        4.9973724774
  C        16.4146689995        4.0523373890        4.0735291349
  C        15.7663322473        5.0829778120        3.3981538445
  C        16.1207336882        6.4282374060        3.6211358203
  C        17.1117858693        6.7116166076        4.5787374581
  C        17.7594656456        5.6827012283        5.2584826427
  C        15.4903668121        7.5239910785        2.8486748947
  C        15.4964461930        7.5074558176        1.4275391831
  C        16.1931778930        6.5057253460        0.6808470124
  H        10.6725001681       12.4661414149        3.9042955692
  H        11.6946601190       10.5513020584        2.6623768853
  H        15.3914318432       11.1682269124        4.7725446332
  H        14.3509885178       13.0711166812        6.0177667944
  H        13.3764218626       11.6313089632        1.2012880302
  H        50.3228753909       22.7487569713        3.9872129331
  H        49.3196587011       24.6231521957        2.6811491374
  H        45.6418017167       24.1605741268        4.8632353847
  H        46.6627598625       22.2897974569        6.1715627569
  H        47.6300388421       23.5759568958        1.2461090726
  H        14.8715740642        8.5880475677        4.6085445414
  H        50.2873215489       22.7032771012       12.0598770385
  H        49.2692138610       24.5761147688       13.3598755909
  H        45.6100806532       24.1084380321       11.1466383487
  H        46.6522538259       22.2532020157        9.8324415616
  H        47.6080300663       23.5519705707       14.7967769961
  H        40.6331790225       17.0824450426       11.4120138630
  H        48.6870417256       14.0949604938        7.8000151503
  H        10.6813739795       12.4668456320       12.0934385264
  H        11.6895707631       10.5248668209       13.2971513865
  H        15.3933385708       11.1585898460       11.2052850615
  H        14.3648400295       13.0871194829        9.9900185037
  H        13.3760850250       11.6222555295       14.7530503765
  H        47.9300374973       14.2187642804        9.7107233039
  H        47.7800055572       14.3736941743        6.4952791541
  H        49.0826851035       18.5519498030       10.8670788927
  H        10.4159092993       14.1343485982        7.9987780683
  H        24.4792128042        3.0355308402        3.9124899979
  H        25.6101047091        4.9007609371        2.6853039620
  H        23.2277743165        7.7563257222        4.8463955029
  H        22.1154865110        5.8813938612        6.0748090397
  H        23.7898834164        5.7998068870        1.2637274829
  H        36.3585240202       32.1902067301        3.9825158029
  H        35.2116616823       30.3716105093        2.7174347657
  H        37.4660819937       27.4370409159        4.9096355335
  H        38.5930745259       29.2685397640        6.1847784154
  H        36.9819671794       29.4569537326        1.3025070967
  H        25.7074041086        8.6247915088        4.6491655558
  H        36.4534959179       32.2428081844       12.1130519698
  H        35.3418608398       30.4295774340       13.4128829117
  H        37.5441441032       27.4877544979       11.1759438108
  H        38.6298646193       29.3124381584        9.8624955984
  H        37.0213334923       29.4767082739       14.8558144570
  H        46.1086872698       26.5872669049       11.3855390911
  H        44.6680824784       35.1160676744        7.8139292446
  H        24.4324729376        3.0417279163       12.0878038004
  H        25.5592885729        4.8841951517       13.3400081821
  H        23.1557716645        7.7678960137       11.2412875336
  H        22.0402902902        5.9132375893        9.9897122965
  H        23.7727913615        5.7982377181       14.8145287522
  H        44.9532924382       34.3898919496        9.6948364934
  H        44.9013927015       34.2066607779        6.4905831555
  H        40.6656996117       33.2084584465       10.8528971424
  H        23.1502114204        1.9573633069        8.0050715650
  H        25.8414558912       19.6132614326        3.8698014769
  H        23.6607711933       19.6763026477        2.6608821323
  H        22.3469458956       16.2237680551        4.8635816279
  H        24.5304508354       16.1809379127        6.0772669897
  H        23.7229703239       17.6505727564        1.2443837612
  H        35.1995867270       15.4326097861        4.1095653092
  H        37.2943408964       15.3906824702        2.7448964506
  H        38.7048467184       18.8757511844        4.8336153544
  H        36.5998964821       18.9082476819        6.1863510519
  H        37.2281413912       17.3663449993        1.2507697047
  H        20.3614456277       17.9803270693        4.6692086588
  H        35.1586736671       15.4381600879       12.1293866312
  H        37.3091673423       15.3744589545       13.3965351966
  H        38.7172680536       18.7663797912       11.1570135364
  H        36.5679467018       18.8007757781        9.8760142819
  H        37.2343231005       17.3567482112       14.7990608393
  H        35.1642820694       26.6823076456       11.4074968003
  H        28.5053949184       21.0727901600        7.8729350813
  H        25.7531078280       19.6310517685       12.1567711828
  H        23.5688946404       19.6825296027       13.3749137401
  H        22.3020041951       16.1747877547       11.2334984128
  H        24.4880223652       16.1429132788       10.0154885323
  H        23.7000200317       17.6381567779       14.7933397632
  H        29.0194084218       21.7157283764        9.7309863148
  H        29.1943487317       21.7031256205        6.5514511827
  H        32.0404726742       18.5784950353       11.0139187460
  H        27.3741677908       19.0076154357        8.0602631113
  H        14.8494251511       19.6471066585       12.1412707782
  H        17.0118960298       19.6921415819       13.3845678163
  H        18.3017579844       16.1853033153       11.2545779635
  H        16.1351656279       16.1560650190       10.0109448051
  H        16.9212156157       17.6953894511       14.8497793933
  H        46.0879328842       15.4379077482       12.0621564089
  H        43.9606063226       15.3763750523       13.3649200978
  H        42.5421456879       18.8057211895       11.1897660557
  H        44.6699390343       18.8423086468        9.8766428601
  H        44.0200669556       17.3273238355       14.8158261887
  H        20.2898163786       17.9220230011       11.4214401159
  H        46.0479767890       15.3959237261        4.0248495143
  H        43.9199159386       15.3406240416        2.7232593121
  H        42.5298209865       18.8033627103        4.8627541860
  H        44.6638378942       18.8444585285        6.1657520495
  H        44.0132273022       17.3176723967        1.2654163167
  H        46.1987405392       26.6822718863        4.6233353820
  H        52.7410985640       21.0626220971        8.1946825168
  H        14.8805975500       19.6752523744        3.8970208676
  H        17.0816523073       19.7495719920        2.7181902283
  H        18.3378378556       16.2328283956        4.8513339393
  H        16.1386881871       16.1824599277        6.0396226677
  H        16.9433478376       17.7125795278        1.2972491741
  H        52.3222470215       21.6732035841        6.2943613403
  H        52.0131495272       21.7019950667        9.4956953465
  H        49.0679352981       18.6080980779        5.2042166296
  H        13.2475282731       19.0165431939        7.9773453213
  H        29.9463577498       12.4442436675       12.2292777541
  H        28.8758071967       10.5102295010       13.3979925341
  H        25.2370885072       11.2112593495       11.2161180790
  H        26.3274638832       13.1317308607       10.0392850323
  H        27.1687564607       11.6685670632       14.7889369288
  H        30.9995948710       22.7782827458       12.0151182266
  H        32.0088388032       24.6554602060       13.3125829747
  H        35.7021737195       24.1338470173       11.1706235438
  H        34.6722802235       22.2637319448        9.8674509264
  H        33.6804606919       23.5745040640       14.7577415206
  H        25.6974358221        8.5952149706       11.4037334360
  H        30.9138485103       22.6434957340        3.8855539805
  H        31.9164614241       24.5365271098        2.6075829489
  H        35.5357666120       24.1551796529        4.9012906776
  H        34.5098949800       22.2761644849        6.1890527248
  H        33.6304843022       23.5607731514        1.2069488225
  H        40.6106241832       17.1113401198        4.6517015301
  H        32.5327300719       14.1091051015        8.3577623473
  H        29.9038954692       12.4686104632        3.9601480176
  H        28.8574325751       10.5849694113        2.7010843154
  H        25.1661888518       11.2370829365        4.8083600476
  H        26.2287044539       13.1197017783        6.0667358766
  H        27.1602824581       11.6851109713        1.2409447098
  H        33.3470868859       14.1616081250        6.4823583939
  H        33.4121642915       14.4150486625        9.6811777060
  H        32.1579332543       18.4734981681        5.1865661524
  H        30.2577239042       14.1405432875        8.1540928784
  H        16.1185772937        2.9631030735       12.1302155420
  H        14.9533477278        4.8201598900       13.3228961055
  H        17.3652510578        7.6858136787       11.2094624975
  H        18.5140040607        5.8181932629       10.0096508808
  H        16.7533929984        5.7394496885       14.7715430447
  H        44.8279771903       32.1400507338       11.9769173838
  H        45.9371476831       30.3411194072       13.3063812510
  H        43.6817266912       27.3780311043       11.1526781006
  H        42.5991604741       29.1898435393        9.8100404076
  H        44.2299576127       29.4364506849       14.7689355133
  H        14.8506896139        8.5459642984       11.3633250542
  H        44.9000373685       32.2337954833        3.9321025815
  H        46.0248605360       30.4126956867        2.6525792618
  H        43.7625538367       27.4838925169        4.8447900563
  H        42.6447929952       29.3175162814        6.1237810041
  H        44.2681605422       29.4702155947        1.2182081766
  H        35.0025184124       26.6268368595        4.6483695336
  H        36.6050139283       35.1339294368        8.1806551064
  H        16.1437565593        3.0127423130        3.9036148287
  H        14.9741574015        4.8560890039        2.6879119211
  H        17.3949437633        7.7471240843        4.7559488893
  H        18.5420176280        5.8931211934        5.9836010693
  H        16.7644568561        5.7553761071        1.2192958487
  H        36.2783956347       34.4822984971        6.2733615434
  H        36.3802623582       34.2092610373        9.4997757459
  H        40.5784737808       33.2011937359        5.1543158719
  H        17.4706062789        1.9469309209        7.9740243611
  H        29.2182118348       19.5298951601       12.5612832825
  H        31.0142679551       15.1222611513        4.0300625723
  H        31.1042391767       15.6332485110       12.5510540945
  H        27.9172906511       18.1221079240       14.3271746524
  H        29.1775891732       15.6118471997       14.5729930971
  H        32.4409384621       16.0417565012        1.9725706287
  H        28.5206940147       17.2136667505        1.6519997382
  H        32.0510668925       18.3764916963       15.9684209286
  H        18.8533712675        0.8690695422       12.3351586448
  H        40.5278541668       35.2291423732        3.9522248926
  H        42.3228317956       34.4177634463        3.5913353878
  H        22.0879311062        0.6921087624       12.3513106730
  H        11.5969868884       18.7129962081       12.3824743415
  H        52.2645950386       18.4312366116        3.6770710665
  H        49.2550252351       16.4772897011        3.5848858191
  H        10.1503843076       15.7982160071       12.2926914096
  H        50.8498670454       17.6922873346        3.9543506668
  H        10.0461177299       17.3945629029       12.0519738798
  H        20.2146114367        0.0022815273       12.0420180322
  H        39.1833371079       36.1241930192        3.6862592994
 Ni        30.4319239470       17.0863220648        2.9194725491
 Ni        31.0318609444       16.2626329261       -0.0819101637
 Ni        29.6256719991       18.3888358822        0.0058745956
 Ni        29.9313922902       17.4715692805       13.2310020717
  O        10.6499324409       14.3650867259        5.4858159568
  O        12.6132169872       14.6575156736        6.5838927579
  O        49.1480572669       16.8459627304        7.9898560756
  O        50.3502511153       20.9358998305        5.6481692190
  O        48.3485745066       20.5933095643        6.6659834907
  O        11.0518368324       17.0537822502        6.5006127038
  O        50.3210560578       20.8816989079       10.4068283769
  O        48.3467755146       20.5867946755        9.3271584309
  O        49.5436636287       18.2484197696       10.0683439185
  O        12.3591399956       18.6246343023        7.9997520886
  O        48.6932279721       14.1485734139        6.7513059976
  O         8.2098468060       14.2104224611        9.3225862874
  O        10.7353855716       14.5067287530       10.6643198137
  O        12.5718320560       14.5828380025        9.3284761756
  O        22.8444321271        2.0433967021        5.4871916358
  O        21.6044380502        3.5917713339        6.5905280878
  O        42.0578324160       34.1369233456        7.9788976012
  O        37.9814721540       33.1370238119        5.5723606182
  O        39.2171625860       31.5753260737        6.6656168013
  O        20.3082018037        1.0391545026        6.5018233009
  O        38.0245437975       33.1852089244       10.4155615623
  O        39.2184689808       31.5831537967        9.3273507237
  O        40.6521152203       33.7690620456       10.0601985583
  O        18.2555674703        1.3761490558        7.9968047554
  O        44.6222147297       35.1005445990        6.7586993869
  O        24.2053855168        0.0000106137        9.3208258808
  O        22.7528249518        2.0575536297       10.5836093819
  O        21.6238173727        3.5954741983        9.3415654948
  O        27.5385040863       18.6808505019        5.4192192669
  O        26.7676363044       16.9275633721        6.6505399706
  O        30.6460220587       19.3463053727        8.0573475880
  O        33.6723123562       16.2657474181        5.8279845317
  O        34.3116649469       18.2439405707        6.7480794247
  O        29.6100574915       16.9943333876        6.5904562689
  O        33.5412119638       16.3294789994       10.5019304602
  O        34.2703611933       18.1804218958        9.4105785251
  O        31.6459217213       18.3199253192       10.1634144528
  O        30.3540031486       15.1065165508        8.1466396095
  O        28.5552619194       21.0215684868        6.8275270893
  O        28.5147532050       20.9509141678        9.4055130794
  O        27.4581871266       18.6774954540       10.6591762987
  O        26.6938767689       16.9258240083        9.4135397487
  O        13.1488869856       18.6929426069       10.5875526877
  O        13.9194731818       16.9162329854        9.4051109457
  O        50.5961370261       19.3502294399        8.0206111363
  O        47.6825852070       16.3270721079       10.4171828997
  O        46.9510961358       18.1758037654        9.3248941624
  O        11.0697071471       17.0155855555        9.4896764477
  O        47.6762329632       16.3354992123        5.6530731678
  O        46.9283868986       18.2357842619        6.6647618503
  O        49.5689025731       18.3176731599        5.9824126336
  O        10.3187031907       15.1002088916        7.9971692009
  O        52.6707730070       21.0278973414        9.2418387181
  O        12.1468352160       20.8911750567        6.6732238747
  O        13.1082507338       18.6136490352        5.3255331388
  O        13.9576703926       16.9871984664        6.6652773982
  O        29.9900997918       14.4387510755       10.7400610004
  O        28.0893204457       14.6515597225        9.4992835130
  O        32.1421988547       16.8490831893        8.1478621968
  O        30.9645839883       20.9525417272       10.4069607382
  O        32.9464639628       20.5995468453        9.3391868622
  O        29.5637808127       17.0737506935        9.5778129967
  O        30.8831012499       20.8159333287        5.5867542937
  O        32.8694649299       20.5817477860        6.6680501152
  O        31.7211842604       18.1784864954        6.0017362144
  O        28.2659375886       18.6241926757        8.0642570218
  O        32.4995030666       14.2077287594        9.4068651541
  O        32.4421803732       14.1450839998        6.8370392170
  O        29.9189406941       14.4261462655        5.4970285252
  O        28.0412960287       14.5824047336        6.7541614576
  O        17.8891379968        1.9665035363       10.6628285382
  O        18.9561202367        3.5270971927        9.4080440510
  O        39.1685595670       34.1385958404        7.9971065605
  O        43.2801761042       33.0588417287       10.3316453631
  O        42.0343632738       31.5064524253        9.2415284025
  O        20.3173515674        1.0362926877        9.4804693315
  O        43.2760691991       33.1824216348        5.5749511087
  O        42.0052106790       31.5840616196        6.5830633685
  O        40.5789841690       33.7749650193        5.9356647361
  O        22.3670436496        1.3842625018        7.9979284717
  O        36.6727481201       35.0996940427        9.2333030571
  O        16.4455208463        0.0641521893        6.6683022625
  O        17.9363473188        2.0432326134        5.3263602226
  O        18.9188204367        3.5931080251        6.6658959777
  O        29.9180419587       18.6830576926        4.1519442379
  O        29.8355215156       18.9696758113       12.0524549341
  O        31.4720118394       15.9789475651        4.1575739697
  O        31.1708555024       16.4878559891       12.0807977963
  O        31.7732022184       16.6307125315        1.5762516304
  O        29.1469082562       17.9543363272        1.7564112779
  O        30.0783148887       15.8930759760       14.3311172104
  O        31.3986539566       18.0244593885       15.3285746853
  O        28.8003567571       18.5331798439       14.3142357740
  O        39.4567179947       35.2436908789        4.0019088533
  O        19.1414194066        0.0046131036       11.9905595850
  O        41.9696677529       35.1727378075        4.0871977743
  O        21.6913922496       -0.0692924389       11.8958086268
  O        51.3648745873       18.6142800714        4.0054549759
  O        10.7511927650       18.7471683830       11.9049332017
  O        50.0796908260       16.4128078363        4.0917635527
  O         9.5245437396       16.4830759920       11.9911668203
 Zr         9.2966199258       16.0527578364        6.1825368201
 Zr        49.8359816134       16.0068830266        9.7465210697
 Zr        22.0729209680        0.0288913488        6.1892191672
 Zr        42.4605686917       35.1525482062        9.8006358277
 Zr        29.6205564613       19.0157920701        6.2554142368
 Zr        29.5679214667       19.1758526808        9.8588298147
 Zr        11.0377624165       19.0521025221        9.8277283237
 Zr        11.0437027993       19.1548586381        6.2512164536
 Zr        31.3297470690       16.1136776197        9.9320946216
 Zr        31.4582820713       15.9633411671        6.3751321945
 Zr        18.6005734818       -0.0024307258        9.7635813654
 Zr        18.5061377614       -0.0085551785        6.2134048106
 Zr        12.3017948582       16.3237105962        7.9902427380
 Zr        48.6160934448       18.8331525216        8.0106409966
 Zr        20.3139970623        2.4720896208        7.9905768971
 Zr        40.6423885170       32.6859411996        7.9779942700
 Zr        28.3533219713       16.3260943618        8.0869179637
 Zr        32.6290320814       18.8353600444        8.0700359734
  H        29.3030617526       16.4631515692        3.5520317457
  H        29.1405941935       18.9394651260        3.6204800510
