     574
 i =      130, E =     -4778.8454641795
  C        11.8587593284       14.0534993769        5.7415582151
  C        12.4562872450       12.8905934751        5.0232654295
  C        11.7046002896       12.1716106850        4.0816371912
  C        12.2810160243       11.1094189307        3.3893029018
  C        13.6216173717       10.7396910982        3.6170141975
  C        14.3547941139       11.4433401037        4.5904194430
  C        13.7818631380       12.5082969303        5.2819195249
  C        14.2611730077        9.6490354064        2.8436249925
  C        14.2564364677        9.6569372603        1.4219272069
  C        13.7432206604       10.7590449161        0.6680318910
  C        49.1268170496       21.2331506202        5.8797672678
  C        48.5500621196       22.4010855230        5.1526163529
  C        49.3000655218       23.0683547986        4.1715773516
  C        48.7331247846       24.1074820991        3.4383575475
  C        47.4026047806       24.5091508981        3.6670195412
  C        46.6716764024       23.8603160471        4.6805734352
  C        47.2341409293       22.8154368735        5.4099456064
  C        46.7723431366       25.5868478005        2.8697650389
  C        46.7612713208       25.5572337924        1.4480052877
  C        47.2612018215       24.4421509970        0.7044922798
  C        14.8604324746        8.5706397357        0.7086541022
  C        14.8920125244        8.5971168668        3.5202690472
  C        49.1132794346       21.2034585615       10.1454231556
  C        48.5279466281       22.3648551797       10.8725801841
  C        49.2672083737       23.0256194759       11.8654331857
  C        48.6908839715       24.0601927848       12.5968788154
  C        47.3604595617       24.4569269431       12.3586561553
  C        46.6400201424       23.8119754626       11.3351864146
  C        47.2135550965       22.7760346537       10.6034399246
  C        46.7219778529       25.5318811557       13.1496777345
  C        46.7335747140       25.5281516667       14.5713788544
  C        47.2489718476       24.4288997067       15.3277308120
  C        40.6224372229       17.1081299507       15.3007873549
  C        40.6243033426       17.0993516641       12.4916880609
  C        11.8830151135       14.0865366734       10.2855146016
  C        12.4723597694       12.9107741111       10.9897485120
  C        11.7148665151       12.1775428282       11.9158586254
  C        12.2814959600       11.0951034220       12.5842627761
  C        13.6203422544       10.7214401572       12.3524535255
  C        14.3582938417       11.4370343356       11.3916519614
  C        13.7928234363       12.5181841996       10.7189679931
  C        14.2539790161        9.6247021664       13.1228535728
  C        14.2526430037        9.6446336610       14.5446921825
  C        13.7426924128       10.7535367756       15.2917790120
  C        22.5138234516        3.2447023826        5.7533590045
  C        23.2324122648        4.3485976177        5.0554065171
  C        24.2292106583        4.0659314035        4.1095716573
  C        24.8603341808        5.1035351766        3.4281665580
  C        24.5107667923        6.4465673678        3.6721262360
  C        23.5425677113        6.7206846971        4.6554214985
  C        22.9067266611        5.6849186472        5.3352840754
  C        25.1175929055        7.5522921898        2.8953682589
  C        25.0824519948        7.5478209903        1.4739012858
  C        24.3785600558        6.5486753406        0.7293128065
  C        38.3025136498       31.9291358705        5.8488511398
  C        37.5722775739       30.8396753900        5.1385463401
  C        36.6088733038       31.1443357259        4.1647573442
  C        35.9903251895       30.1249669818        3.4460516654
  C        36.3205732060       28.7756677345        3.6794079823
  C        37.2548299718       28.4782586513        4.6893819698
  C        37.8771614156       29.4964047155        5.4071895210
  C        35.7174796368       27.6844794997        2.8811988850
  C        35.7481906428       27.7005088583        1.4596772354
  C        36.4501106933       28.7057787315        0.7225258580
  C        25.6991712988        8.6207462701        0.7529261220
  C        25.7204535976        8.6247169159        3.5645090510
  C        38.3285691451       31.9626903718       10.1553305051
  C        37.6056473391       30.8894496807       10.8959646751
  C        36.6725219018       31.1983923792       11.8973214439
  C        36.0611031651       30.1799708188       12.6257901644
  C        36.3692756071       28.8277832097       12.3762704640
  C        37.2800149357       28.5286308895       11.3446636430
  C        37.8932002169       29.5435642406       10.6172691722
  C        35.7617577005       27.7286193600       13.1603894934
  C        35.7708847355       27.7231669625       14.5823398885
  C        36.4604671277       28.7169292935       15.3457229538
  C        46.1355196937       26.6207529326       15.2815274378
  C        46.0880802029       26.5802748906       12.4736316296
  C        22.4605006459        3.2561709448       10.2580422368
  C        23.1529316449        4.3651492704       10.9815516805
  C        24.1540723066        4.0800661452       11.9237297835
  C        24.7803641841        5.1108158243       12.6202735200
  C        24.4258125969        6.4565265327       12.3974410284
  C        23.4478478683        6.7347666064       11.4236375368
  C        22.8168909787        5.7043401463       10.7275618240
  C        25.0551824851        7.5555464177       13.1714830256
  C        25.0507863798        7.5488066923       14.5944609673
  C        24.3616892246        6.5500132067       15.3524315670
  C        26.6412024739       17.8251059314        5.7507477031
  C        25.3313386335       17.8741746257        5.0327106732
  C        25.0723012719       18.8678657689        4.0754449351
  C        23.8531874145       18.8931824055        3.4003601142
  C        22.8589106679       17.9264743938        3.6565047961
  C        23.1160390825       16.9551975990        4.6427024622
  C        24.3348576741       16.9265278811        5.3189839750
  C        21.5828093921       17.9137291356        2.8963565395
  C        21.5812678388       17.8930075169        1.4736322811
  C        22.7857482933       17.7677691731        0.7115109316
  C        34.4826656681       17.2531348276        5.9540729281
  C        35.7699273420       17.1947259065        5.2025997990
  C        35.9778032552       16.2024368522        4.2318076323
  C        37.1485307582       16.1885607395        3.4789641582
  C        38.1449176187       17.1629487921        3.6801914566
  C        37.9420323926       18.1350496803        4.6781917460
  C        36.7669822126       18.1564952954        5.4257120544
  C        39.3923926556       17.1644916002        2.8827453781
  C        39.3781869132       17.1537636518        1.4612685334
  C        38.1653533134       17.2555074113        0.7099751916
  C        20.3341399669       17.9141490068        0.7661744436
  C        20.3581449443       17.9174344159        3.5797922429
  C        34.4365765080       17.2374168117       10.1893315979
  C        35.7364105922       17.1358141898       10.9119927285
  C        35.9369519802       16.1614727919       11.9009486718
  C        37.1279976692       16.1296363009       12.6221079124
  C        38.1457876783       17.0712819161       12.3739070746
  C        37.9509499174       18.0179982014       11.3507388680
  C        36.7598293334       18.0548607333       10.6328433469
  C        39.3964974542       17.0895278470       13.1637969971
  C        39.3806091539       17.1170529875       14.5849767995
  C        38.1668355739       17.2376574766       15.3331216045
  C        35.1436826656       26.6422098838       15.2861262115
  C        35.1743681869       26.6565713221       12.4770198389
  C        26.5726550129       17.8267805237       10.3219211670
  C        25.2581130290       17.8684957719       11.0296422005
  C        24.9906802301       18.8739655865       11.9709187839
  C        23.7728385086       18.8967595339       12.6449293543
  C        22.7923732166       17.9145070972       12.4001982563
  C        23.0538581670       16.9338470101       11.4263143904
  C        24.2729685953       16.9085144852       10.7514089642
  C        21.5286208278       17.8945787512       13.1733337219
  C        21.5533601888       17.8823920580       14.5947411036
  C        22.7722788548       17.7632389311       15.3351425224
  C        14.0465848800       17.8285071884       10.2890754345
  C        15.3508320136       17.8841950048       11.0147558090
  C        15.6078354675       18.8852963950       11.9644932227
  C        16.8168264456       18.9041277285       12.6575233148
  C        17.8030977810       17.9247403293       12.4228303511
  C        17.5508376374       16.9480017326       11.4409379098
  C        16.3413206491       16.9244698555       10.7496738688
  C        19.0725579207       17.9053271828       13.1911077281
  C        19.0722530079       17.8997546352       14.6136314873
  C        17.8658299154       17.8011375952       15.3758952195
  C        46.8016275340       17.2146842331       10.1541225469
  C        45.5052368740       17.1421342005       10.8886950783
  C        45.2999969463       16.1624464415       11.8725269262
  C        44.1145375856       16.1364388573       12.6023808348
  C        43.1035867315       17.0894988163       12.3704440707
  C        43.3040191398       18.0455397051       11.3563396210
  C        44.4908030951       18.0760476746       10.6278757403
  C        41.8522043777       17.0990877688       13.1630082451
  C        41.8653016544       17.1166683131       14.5848403802
  C        43.0782310143       17.2260015716       15.3350580350
  C        20.3195388242       17.9076633914       15.3210059214
  C        20.2961843608       17.8857110683       12.5076533766
  C        46.7885854215       17.2356399778        5.8840004429
  C        45.4912757181       17.1428844234        5.1571144531
  C        45.2734598679       16.1527486021        4.1871975274
  C        44.0893472055       16.1374891458        3.4544099818
  C        43.0940796834       17.1094819676        3.6747025428
  C        43.3040455230       18.0718480551        4.6799198287
  C        44.4889499270       18.0933666852        5.4079278154
  C        41.8459768733       17.1343641487        2.8820302626
  C        41.8621787348       17.1334723037        1.4610853010
  C        43.0768826251       17.2306659149        0.7118958731
  C        46.1532573646       26.6371353109        0.7262868711
  C        46.1624804891       26.6559977118        3.5359218264
  C        14.0461018614       17.8303399358        5.7075885550
  C        15.3676537611       17.9003635048        5.0160928895
  C        15.6465016764       18.9153137052        4.0885139274
  C        16.8767062877       18.9485181259        3.4351747625
  C        17.8565513923       17.9657413716        3.6826284092
  C        17.5842034591       16.9790713277        4.6477062027
  C        16.3562202049       16.9455841254        5.3049020388
  C        19.1247363718       17.9374708962        2.9139263908
  C        19.0997035252       17.9145458788        1.4922173402
  C        17.8792364519       17.8076575691        0.7521578332
  C        28.8094830479       14.0917965793       10.3903156009
  C        28.1921886944       12.9216102608       11.0796023064
  C        28.9116566571       12.1801007700       12.0282970532
  C        28.3088801082       11.1071202296       12.6799170443
  C        26.9727006913       10.7508103613       12.4062676808
  C        26.2749728719       11.4726150241       11.4213065337
  C        26.8752527146       12.5464473040       10.7687069234
  C        26.3025003247        9.6711549613       13.1668219056
  C        26.2903850015        9.6980613516       14.5878303625
  C        26.7873159787       10.8144984800       15.3323569254
  C        32.1800837285       21.2361127295       10.1435474059
  C        32.7762129820       22.4001671136       10.8638901788
  C        32.0282631613       23.0798576974       11.8375593533
  C        32.5995242025       24.1200917480       12.5641308658
  C        33.9340768020       24.5086164729       12.3375702363
  C        34.6646259467       23.8473107653       11.3325166666
  C        34.0958547024       22.8014694617       10.6080063739
  C        34.5624141915       25.5853259794       13.1365861301
  C        34.5555767732       25.5566907512       14.5580380675
  C        34.0522601187       24.4388485972       15.2954672346
  C        25.6870674370        8.6176248896       15.3079527004
  C        25.6676336375        8.6189059618       12.4942488282
  C        32.1169092329       21.1971798631        5.8449802286
  C        32.7003130413       22.3571436718        5.1092768904
  C        31.9666534073       23.0151444594        4.1095943715
  C        32.5436520275       24.0541985294        3.3831083028
  C        33.8682018801       24.4632979086        3.6360774260
  C        34.5826710685       23.8193667322        4.6643298293
  C        34.0100540595       22.7768963109        5.3881891277
  C        34.5072533177       25.5479003678        2.8560976541
  C        34.5265758834       25.5377480126        1.4344058703
  C        34.0380329142       24.4302967358        0.6720886478
  C        40.6204891987       17.1221874134        0.7453380506
  C        40.6195076080       17.1705656861        3.5546012436
  C        28.7432000739       14.0673243408        5.8241163247
  C        28.1350207675       12.9223131672        5.0854355886
  C        28.8582057727       12.2650766759        4.0784679827
  C        28.2825386880       11.2057332483        3.3808879016
  C        26.9668786593       10.7822188036        3.6597556395
  C        26.2617843179       11.4311468480        4.6911497902
  C        26.8366304537       12.4878750458        5.3941384903
  C        26.3252648441        9.6919945636        2.8867705717
  C        26.3025996531        9.7095550711        1.4646425160
  C        26.7897682048       10.8217349729        0.7083311439
  C        18.1355374858        3.1811182247       10.3171448796
  C        17.4063263955        4.2783569918       11.0157954045
  C        16.3904541133        4.0000518560       11.9431659567
  C        15.7427716896        5.0400624342       12.6066454121
  C        16.0948934939        6.3837568293       12.3671130774
  C        17.0844765221        6.6532313765       11.4035474547
  C        17.7335351757        5.6158596556       10.7385064034
  C        15.4705307697        7.4914426499       13.1301482737
  C        15.4857418919        7.4906985938       14.5518604577
  C        16.1873370162        6.4971009855       15.3050202957
  C        42.9459314369       31.8595970842       10.0728913296
  C        43.6463375339       30.7719142000       10.8168422141
  C        44.5916638917       31.0932774798       11.8030924631
  C        45.1973954927       30.0877427134       12.5507612514
  C        44.8712088850       28.7346487716       12.3357297804
  C        43.9456463499       28.4202740023       11.3222806529
  C        43.3368147110       29.4254002090       10.5742326323
  C        45.4887729248       27.6553407892       13.1389165407
  C        45.4928400188       27.6808993672       14.5606121564
  C        44.8057289300       28.6889108101       15.3072607102
  C        14.8566895000        8.5631374533       15.2642255105
  C        14.8752702779        8.5632182233       12.4515556347
  C        42.9464853659       31.9615834482        5.8089688341
  C        43.6917859718       30.8854236622        5.0955708964
  C        44.6561536929       31.1913379877        4.1230517555
  C        45.2776949988       30.1717463353        3.4053444405
  C        44.9541696405       28.8214060235        3.6431933264
  C        44.0210122348       28.5237458384        4.6542829550
  C        43.3927459603       29.5405099911        5.3664596616
  C        45.5631234283       27.7239920659        2.8579088908
  C        45.5333185958       27.7172920075        1.4366082215
  C        44.8269861190       28.7075179261        0.6836555922
  C        35.1305639158       26.6317398641        0.7310012040
  C        35.1144516968       26.6075470872        3.5408451086
  C        18.1486507385        3.2470071708        5.7065429827
  C        17.4301326097        4.3438273345        4.9972435050
  C        16.4147120361        4.0526223540        4.0738758952
  C        15.7664565490        5.0832968969        3.3985110955
  C        16.1213773483        6.4284947734        3.6210722174
  C        17.1130417129        6.7118108206        4.5780457281
  C        17.7606864321        5.6828603438        5.2577836678
  C        15.4908453867        7.5242021665        2.8486602889
  C        15.4967010392        7.5075616821        1.4275292525
  C        16.1935281502        6.5059006817        0.6808350038
  H        10.6724420812       12.4656581641        3.9046480746
  H        11.6947335481       10.5508708347        2.6628097548
  H        15.3918669230       11.1688536137        4.7720861057
  H        14.3513490228       13.0715759091        6.0172939202
  H        13.3761742241       11.6311482174        1.2013510390
  H        50.3227671611       22.7482959268        3.9868277848
  H        49.3196037394       24.6227378774        2.6807676188
  H        45.6422100987       24.1611465379        4.8637874068
  H        46.6631970702       22.2902416136        6.1721216306
  H        47.6297402172       23.5757637130        1.2461616650
  H        14.8724548276        8.5884034246        4.6085779712
  H        50.2872712622       22.7027972337       12.0603061903
  H        49.2692936023       24.5756968186       13.3603373766
  H        45.6106007848       24.1091859539       11.1461607988
  H        46.6526957620       22.2537645002        9.8319785855
  H        47.6077905702       23.5518149676       14.7968022689
  H        40.6240671852       17.0549653660       11.4042394208
  H        48.6870463378       14.0950113913        7.8000622124
  H        10.6813672368       12.4665330539       12.0932293697
  H        11.6897191090       10.5246499706       13.2969242425
  H        15.3937638838       11.1592538150       11.2057683730
  H        14.3651863840       13.0876118938        9.9905032133
  H        13.3758578218       11.6221505860       14.7531490020
  H        47.9302138550       14.2185221302        9.7109629660
  H        47.7798816647       14.3730291646        6.4952206489
  H        49.0825509333       18.5517237629       10.8670616642
  H        10.4160817384       14.1343221406        7.9988078663
  H        24.4869409998        3.0266119928        3.9183892084
  H        25.6328990841        4.8834454812        2.6945776156
  H        23.2652268613        7.7545322442        4.8505214854
  H        22.1370016911        5.8880609579        6.0758577813
  H        23.8209902166        5.7901310677        1.2709128320
  H        36.3696277709       32.1876946745        3.9731764772
  H        35.2428479388       30.3650388897        2.6930872194
  H        37.5178337006       27.4391406462        4.8762430938
  H        38.6238651717       29.2746729115        6.1659979672
  H        37.0119063356       29.4579275303        1.2687149923
  H        25.7641796761        8.6034535586        4.6519334268
  H        36.4474273457       32.2426091740       12.1021438330
  H        35.3318621226       30.4245729166       13.3949566676
  H        37.5295358221       27.4884690217       11.1458397141
  H        38.6189908913       29.3183313876        9.8396914243
  H        37.0313418867       29.4772500066       14.8204991185
  H        46.1096213723       26.5877431520       11.3855987435
  H        44.6684164055       35.1162559155        7.8139282794
  H        24.4324087838        3.0421108499       12.0915853011
  H        25.5606283025        4.8826131707       13.3432282825
  H        23.1626146698        7.7690498232       11.2422553101
  H        22.0461600407        5.9166517115        9.9902166369
  H        23.7905204615        5.7931495955       14.8226883386
  H        44.9542635388       34.3907959135        9.6954412892
  H        44.9021626799       34.2069173349        6.4906491937
  H        40.6661969021       33.2093768309       10.8531735018
  H        23.1504888919        1.9581519205        8.0054050764
  H        25.8386026601       19.6140126075        3.8763926404
  H        23.6560705192       19.6710365551        2.6656968561
  H        22.3613804105       16.1990323048        4.8494354592
  H        24.5429951959       16.1634863928        6.0654444851
  H        23.7266121042       17.6449210206        1.2398856737
  H        35.2077091455       15.4508491135        4.0744463322
  H        37.3069821061       15.4135849760        2.7321984000
  H        38.7045831358       18.8946108063        4.8377921338
  H        36.5923112479       18.9221265742        6.1780910769
  H        37.2277156135       17.3780311225        1.2448583779
  H        20.3658654749       17.9570064715        4.6676956863
  H        35.1420718416       15.4473801538       12.1034927708
  H        37.2819395556       15.3712202367       13.3865714194
  H        38.7305362844       18.7509501277       11.1538208648
  H        36.5885632705       18.8042041358        9.8638994455
  H        37.2300113861       17.3473564370       14.7945330711
  H        35.1470154699       26.6825588459       11.3893180569
  H        28.5087950402       21.0917422093        7.8903835144
  H        25.7499335636       19.6304064694       12.1558789810
  H        23.5654244492       19.6803904970       13.3704747368
  H        22.3052411533       16.1685759109       11.2316058013
  H        24.4908797443       16.1396284455       10.0140065667
  H        23.7026405984       17.6373705863       14.7894220355
  H        29.0121970060       21.7192496625        9.7430537246
  H        29.1410012507       21.7520570422        6.5405714731
  H        32.0757148876       18.5671893213       10.9308633617
  H        27.4009318217       19.0735284153        8.0698311716
  H        14.8497271114       19.6443050211       12.1442945172
  H        17.0123265706       19.6867307213       13.3874891848
  H        18.3018448721       16.1839811219       11.2506230419
  H        16.1351161549       16.1570126161       10.0074191934
  H        16.9226664520       17.6875675806       14.8493494837
  H        46.0873994909       15.4362254840       12.0601002711
  H        43.9578121836       15.3709068696       13.3591805374
  H        42.5311173876       18.7886537942       11.1712492558
  H        44.6622095751       18.8302418038        9.8633393692
  H        44.0163167334       17.3372176572       14.7988651833
  H        20.2892356861       17.9174889857       11.4195822572
  H        46.0468313343       15.4086011443        4.0108528304
  H        43.9213398378       15.3674490498        2.7046543893
  H        42.5410118854       18.8273248667        4.8553333364
  H        44.6724091126       18.8541692282        6.1625672144
  H        44.0141138780       17.3446825503        1.2489342497
  H        46.1994775499       26.6825835931        4.6233615489
  H        52.7412212854       21.0626031164        8.1947226716
  H        14.8894987247       19.6724810250        3.8961554763
  H        17.0912853375       19.7390110908        2.7191981295
  H        18.3310485134       16.2132469269        4.8469053331
  H        16.1317213180       16.1709155114        6.0340681050
  H        16.9461257961       17.6991770807        1.2967932422
  H        52.3224767818       21.6731619519        6.2941332817
  H        52.0132769385       21.7021023200        9.4956287652
  H        49.0685814555       18.6084197743        5.2038908004
  H        13.2477277773       19.0159660310        7.9770078447
  H        29.9413041321       12.4589770118       12.2406235260
  H        28.8682189476       10.5314163293       13.4142007270
  H        25.2425978073       11.2075576254       11.2024889152
  H        26.3341439938       13.1249125797       10.0239738956
  H        27.1409267456       11.6865410473       14.7906413172
  H        31.0030695392       22.7671355237       12.0200915101
  H        32.0147555512       24.6465603227       13.3152883486
  H        35.6976242729       24.1379059588       11.1524338916
  H        34.6653696808       22.2652623035        9.8523906563
  H        33.7019207075       23.5684404404       14.7480637917
  H        25.6969126465        8.5991140124       11.4062260694
  H        30.9460000034       22.6946852055        3.9117997231
  H        31.9682050758       24.5676994420        2.6158591782
  H        35.6074816044       24.1245047780        4.8656754054
  H        34.5669577462       22.2578789012        6.1648863352
  H        33.6777129565       23.5523292961        1.2003545222
  H        40.6191154847       17.1468281478        4.6426448748
  H        32.5204452440       14.1434927872        8.2538980133
  H        29.8695009367       12.6025674680        3.8611127723
  H        28.8525215646       10.6887922192        2.6119710532
  H        25.2436172372       11.1182499484        4.9132977776
  H        26.2888354220       13.0033385737        6.1794658586
  H        27.1431635930       11.7002048980        1.2401539387
  H        33.2955046224       14.1692590205        6.4330945090
  H        33.4059306117       14.4010772674        9.6097781263
  H        32.1395142357       18.5250120599        5.1165713853
  H        30.2202851062       14.1897174754        8.0790515995
  H        16.1182392147        2.9635696491       12.1294464715
  H        14.9531966952        4.8207545354       13.3221880847
  H        17.3671521634        7.6860740257       11.2106170860
  H        18.5157659483        5.8185001658       10.0108622719
  H        16.7540193203        5.7398583425       14.7715140634
  H        44.8277941199       32.1403767217       11.9773993913
  H        45.9371372383       30.3415529725       13.3068097320
  H        43.6832296516       27.3781675782       11.1519604386
  H        42.6004699651       29.1900364376        9.8093163195
  H        44.2304519147       29.4367416589       14.7689635082
  H        14.8516153987        8.5465119579       11.3633324405
  H        44.8995418570       32.2340271791        3.9314365580
  H        46.0244552325       30.4130107758        2.6519732186
  H        43.7643996866       27.4839859086        4.8461455080
  H        42.6465797235       29.3177174907        6.1252315181
  H        44.2685396043       29.4704486037        1.2182391190
  H        35.0712711487       26.6198363353        4.6283106301
  H        36.6052497417       35.1341518813        8.1806709088
  H        16.1434305385        3.0130757328        3.9043029161
  H        14.9739808854        4.8565460958        2.6885656884
  H        17.3968709366        7.7472317164        4.7546915976
  H        18.5438674694        5.8932868970        5.9822256306
  H        16.7650585182        5.7557357652        1.2192773968
  H        36.2787512765       34.4824192413        6.2731118415
  H        36.3815070835       34.2089889396        9.4994645430
  H        40.5806261584       33.2029088376        5.1532503866
  H        17.4710038989        1.9476444004        7.9741206708
  H        29.1072582087       19.4097486198       12.4907473039
  H        30.2267898591       19.3118192263        3.1610668702
  H        32.4512178483       16.1599212159        3.7426998333
  H        31.1996968532       15.6406073969       12.4855333439
  H        28.3232615326       17.8255880880       14.7857155291
  H        29.4106939130       15.6026514954       14.5727394921
  H        31.2595058247       20.2859728917        1.5083391279
  H        31.8949186337       17.8349487131        1.6810770423
  H        28.3608985405       16.4293252559        1.4824357184
  H        32.4396634405       18.4612572048       15.6583192910
  H        18.8535779557        0.8688657197       12.3354443763
  H        40.5280619904       35.2289178111        3.9519470267
  H        42.3248223396       34.4196920086        3.5898400019
  H        22.0876216047        0.6926126335       12.3514262692
  H        11.5969920269       18.7127726659       12.3825008427
  H        52.2650361616       18.4314083126        3.6772485234
  H        49.2552007833       16.4769656043        3.5846666525
  H        10.1501634176       15.7982525038       12.2928412402
  H        50.8502757195       17.6923390404        3.9542699528
  H        10.0459939127       17.3945879635       12.0519741138
  H        20.2150060015        0.0022950109       12.0419375957
  H        39.1838410778       36.1245413944        3.6865352366
 Ni        30.3928821020       16.3704755667        2.6659353937
 Ni        31.1618117534       16.4766851916       -0.0809104266
 Ni        30.0912509420       18.7552348776        0.0828403236
 Ni        30.0162632371       17.4267032674       13.1570106162
  O        10.6499544241       14.3651049084        5.4858426131
  O        12.6131792803       14.6575288052        6.5838984039
  O        49.1480187802       16.8458612178        7.9898896487
  O        50.3502334964       20.9357999777        5.6481053499
  O        48.3485545568       20.5933176758        6.6660039235
  O        11.0518056285       17.0537509208        6.5006558681
  O        50.3210787172       20.8816938356       10.4068539086
  O        48.3467712458       20.5867948222        9.3272126297
  O        49.5436466243       18.2484272666       10.0683184586
  O        12.3590916625       18.6245965830        7.9996962120
  O        48.6932276443       14.1486042736        6.7513142241
  O         8.2098889098       14.2104492801        9.3225469375
  O        10.7353859514       14.5067710092       10.6643231816
  O        12.5718118431       14.5828341752        9.3284831966
  O        22.8446727127        2.0429284337        5.4871659072
  O        21.6062959285        3.5926361904        6.5889484857
  O        42.0583289481       34.1375472504        7.9789403243
  O        37.9814263079       33.1371860134        5.5724223713
  O        39.2179342556       31.5757223218        6.6663632894
  O        20.3085076751        1.0397046863        6.5021358711
  O        38.0246908121       33.1860873466       10.4150007222
  O        39.2192719332       31.5838605959        9.3262992958
  O        40.6523346925       33.7694799612       10.0601656320
  O        18.2555431272        1.3762649680        7.9967408897
  O        44.6222256062       35.1005278449        6.7587665957
  O        24.2054144994        0.0000309965        9.3207598186
  O        22.7529611450        2.0579587155       10.5838623490
  O        21.6244068293        3.5959794750        9.3424708706
  O        27.5397881351       18.6798318285        5.4213457627
  O        26.7656835093       16.9317099700        6.6561954245
  O        30.6637235226       19.4098820304        8.0067371157
  O        33.6287181859       16.3311217807        5.7350475345
  O        34.3120813013       18.2458007532        6.7435080126
  O        29.5830321067       17.0633274908        6.5663247811
  O        33.5499487338       16.3399860692       10.4168765951
  O        34.2999430939       18.2390140361        9.4076732918
  O        31.6502720338       18.3208590850       10.0916534775
  O        30.3231137024       15.1556993771        8.0815017929
  O        28.5533165673       21.0328117101        6.8344352056
  O        28.5150320411       20.9569043791        9.4003230470
  O        27.4570857826       18.6809392002       10.6542102104
  O        26.6954465211       16.9283173484        9.4102984385
  O        13.1489110027       18.6928796069       10.5875586297
  O        13.9193338764       16.9162204927        9.4049593265
  O        50.5962851112       19.3502495534        8.0206145334
  O        47.6826244231       16.3269924456       10.4171739930
  O        46.9508344212       18.1757219484        9.3249592989
  O        11.0697533914       17.0155620559        9.4896367955
  O        47.6757942622       16.3357153317        5.6524158937
  O        46.9290970095       18.2358381313        6.6651779404
  O        49.5688471608       18.3176924117        5.9824082599
  O        10.3186573684       15.1001669923        7.9970999612
  O        52.6707818568       21.0278883358        9.2418338156
  O        12.1468553127       20.8911246082        6.6732026403
  O        13.1091002827       18.6133658326        5.3253278489
  O        13.9573632002       16.9869273127        6.6653609498
  O        29.9950038817       14.4401495340       10.7232662431
  O        28.0890132764       14.6546702700        9.4934522824
  O        32.1351698316       16.8613274235        8.0617934043
  O        30.9640441387       20.9492174424       10.4061045515
  O        32.9460338815       20.5995072169        9.3348696255
  O        29.5612543648       17.0795654962        9.5638779235
  O        30.9033797730       20.8765729298        5.5787859066
  O        32.8768038625       20.5881430272        6.6645475967
  O        31.6776316057       18.2426370913        5.9210138384
  O        28.2887645441       18.6796093591        8.0606695077
  O        32.4917587728       14.2125848067        9.3292074551
  O        32.4089562591       14.2115979919        6.8284801211
  O        29.9139556471       14.4368426143        5.4966366549
  O        28.0346599537       14.5920745990        6.7567482014
  O        17.8892632134        1.9666891003       10.6628016570
  O        18.9562627593        3.5271564942        9.4079089871
  O        39.1686353145       34.1388319352        7.9971694739
  O        43.2802069441       33.0589703870       10.3317402822
  O        42.0345100034       31.5064507867        9.2416303162
  O        20.3178740968        1.0370203363        9.4799398806
  O        43.2760308916       33.1824826021        5.5748507913
  O        42.0052370034       31.5840416291        6.5829684497
  O        40.5789510165       33.7750066787        5.9357833643
  O        22.3674725627        1.3847605285        7.9978866389
  O        36.6727732335       35.0998398880        9.2332863640
  O        16.4456218093        0.0642657550        6.6682394818
  O        17.9364549821        2.0433125809        5.3264295271
  O        18.9190867813        3.5931347065        6.6658853709
  O        29.6879521996       19.0416790107        3.9873475013
  O        29.7836702839       18.9092920586       11.9960928423
  O        31.5592468799       15.9741140250        4.0895426774
  O        31.1810476537       16.4840618494       11.9906163621
  O        31.9839784152       16.8556908253        1.5638736210
  O        29.2404677146       16.7862133929        1.2537489333
  O        30.2851078374       15.9556433990       14.3255607913
  O        31.6513826025       18.1704388737       15.1569867094
  O        30.8467696382       19.4204164304        1.6669017664
  O        29.0617778328       18.3928552484       14.4966563428
  O        39.4568032691       35.2438029177        4.0019647120
  O        19.1415138264        0.0044793461       11.9905115148
  O        41.9694977242       35.1726839696        4.0871123733
  O        21.6913942510       -0.0690338058       11.8959568815
  O        51.3651986882       18.6142975961        4.0054912122
  O        10.7511722063       18.7471997692       11.9049968810
  O        50.0797310781       16.4128227095        4.0917793667
  O         9.5243375060       16.4831090644       11.9912242118
 Zr         9.2969892054       16.0526051591        6.1825233200
 Zr        49.8365368254       16.0067315703        9.7465403454
 Zr        22.0736006433        0.0305366188        6.1887528511
 Zr        42.4612423975       35.1540715689        9.8010923904
 Zr        29.6191133166       19.0895065434        6.2700732458
 Zr        29.5734629611       19.1763635892        9.8390076734
 Zr        11.0382355779       19.0519205166        9.8278785587
 Zr        11.0442126877       19.1546469389        6.2511760563
 Zr        31.3393080053       16.1053945307        9.8500568742
 Zr        31.4015649502       15.9855059225        6.2611844633
 Zr        18.6016409050       -0.0005302313        9.7632419144
 Zr        18.5068068045       -0.0072311980        6.2138391231
 Zr        12.3023518754       16.3235423991        7.9902889726
 Zr        48.6167912187       18.8330444902        8.0108426839
 Zr        20.3158902976        2.4743648694        7.9901934004
 Zr        40.6440809818       32.6877581318        7.9781227890
 Zr        28.3407411221       16.3327073491        8.0757099196
 Zr        32.6356938241       18.8362777044        8.0419696476
  H        29.2425296057       16.0159892021        3.4901168903
  H        29.2170044996       18.2331946437        3.6805093910
