     574
 i =      193, E =     -4778.8544885624
  C        11.8587506308       14.0534077366        5.7416188875
  C        12.4562692807       12.8904858850        5.0233212851
  C        11.7045590371       12.1715186829        4.0816957389
  C        12.2809548188       11.1093262162        3.3893425357
  C        13.6215489727       10.7395766512        3.6170564825
  C        14.3547670001       11.4432367885        4.5904227870
  C        13.7818531411       12.5081965824        5.2819365155
  C        14.2610755176        9.6489523558        2.8435962925
  C        14.2563442824        9.6568324617        1.4218944932
  C        13.7430318548       10.7589092525        0.6680160068
  C        49.1268532147       21.2332193510        5.8797407998
  C        48.5500822452       22.4011420836        5.1525482647
  C        49.3000844077       23.0684803505        4.1715700002
  C        48.7331388495       24.1076166389        3.4383671851
  C        47.4026131834       24.5092509915        3.6670548416
  C        46.6716573273       23.8603352689        4.6805337572
  C        47.2341498486       22.8154379856        5.4098630556
  C        46.7723524962       25.5869519126        2.8697962679
  C        46.7611613939       25.5572933987        1.4480367485
  C        47.2610204982       24.4421499586        0.7045619084
  C        14.8603823428        8.5705486663        0.7086299092
  C        14.8919872731        8.5970774678        3.5202432631
  C        49.1132952719       21.2034992782       10.1454685954
  C        48.5279036574       22.3648409529       10.8727307625
  C        49.2671262305       23.0256848094       11.8655438884
  C        48.6907313954       24.0602321088       12.5969823622
  C        47.3602804347       24.4568712106       12.3587538493
  C        46.6398419638       23.8117861637       11.3353705271
  C        47.2134592112       22.7758746657       10.6036488500
  C        46.7217562012       25.5318262573       13.1497506829
  C        46.7333557185       25.5281327922       14.5714519125
  C        47.2487290923       24.4288640933       15.3277999780
  C        40.6372755764       17.1607030602       15.3228548461
  C        40.6523722432       17.1819500972       12.5143960374
  C        11.8830003143       14.0865358512       10.2855239813
  C        12.4723319377       12.9107294290       10.9897386137
  C        11.7148078626       12.1775010494       11.9158215952
  C        12.2814104946       11.0950356662       12.5842145142
  C        13.6202554629       10.7213600611       12.3524077709
  C        14.3582395935       11.4369539155       11.3916283429
  C        13.7927840791       12.5181191655       10.7189568165
  C        14.2538251243        9.6245985948       13.1228362131
  C        14.2525548097        9.6445319851       14.5446803112
  C        13.7424952595       10.7533956858       15.2917599081
  C        22.5134185326        3.2445320793        5.7540017838
  C        23.2312048118        4.3489664565        5.0570917735
  C        24.2289296535        4.0676999223        4.1119291339
  C        24.8585181194        5.1064129899        3.4310483037
  C        24.5062135393        6.4486962469        3.6750833137
  C        23.5375341892        6.7214639256        4.6581540789
  C        22.9032646942        5.6846196375        5.3375084094
  C        25.1110586965        7.5548540929        2.8981644411
  C        25.0770306651        7.5482867385        1.4768107610
  C        24.3745727518        6.5477113554        0.7326912076
  C        38.2981411424       31.9275694342        5.8514426225
  C        37.5562586761       30.8384241642        5.1492035696
  C        36.5889758197       31.1457393502        4.1797259128
  C        35.9575650320       30.1284403339        3.4688190810
  C        36.2776346129       28.7766367481        3.7034608352
  C        37.2146230386       28.4765658988        4.7104577506
  C        37.8498490544       29.4930330080        5.4209786057
  C        35.6659592731       27.6897242194        2.9027787250
  C        35.7051938894       27.7076541911        1.4807173306
  C        36.4191711313       28.7087001568        0.7489216027
  C        25.6937169174        8.6205241082        0.7551316131
  C        25.7114412996        8.6289992403        3.5669870125
  C        38.3310002953       31.9621181276       10.1595711305
  C        37.6137418831       30.8899283061       10.9090709600
  C        36.6800959226       31.2014311107       11.9094029738
  C        36.0689262020       30.1855757883       12.6421767782
  C        36.3768913264       28.8321543495       12.3983199484
  C        37.2919010665       28.5303907408       11.3710135434
  C        37.9047935022       29.5428793061       10.6393842121
  C        35.7598997353       27.7349828128       13.1792511455
  C        35.7532219963       27.7308384534       14.6016606993
  C        36.4406603298       28.7206396342       15.3722245453
  C        46.1353640314       26.6207862388       15.2815757882
  C        46.0878539024       26.5802057192       12.4736879274
  C        22.4602201657        3.2555739254       10.2581885028
  C        23.1524688285        4.3636120256       10.9825187470
  C        24.1524313180        4.0770897359       11.9255055047
  C        24.7786770006        5.1069140495       12.6232687820
  C        24.4251891189        6.4528223738       12.4004153812
  C        23.4483613443        6.7324667459       11.4259312822
  C        22.8173244957        5.7029959095       10.7287486619
  C        25.0545724266        7.5513384061       13.1746154716
  C        25.0486003213        7.5457915010       14.5974777411
  C        24.3592087062        6.5474658555       15.3558135959
  C        26.6396555214       17.8188147288        5.7411822310
  C        25.3313181302       17.8720625602        5.0214219261
  C        25.0591050582       18.8855303966        4.0887750742
  C        23.8393850455       18.9141906395        3.4151590241
  C        22.8556050997       17.9327022488        3.6520460952
  C        23.1246778854       16.9404770546        4.6134018302
  C        24.3455151281       16.9072857390        5.2858199800
  C        21.5784419492       17.9256502019        2.8937159494
  C        21.5781648555       17.9056198943        1.4714893391
  C        22.7838227762       17.7806886549        0.7112262367
  C        34.4977880271       17.2208020394        5.9959610801
  C        35.7778356154       17.1765492466        5.2296016065
  C        35.9802823903       16.1941747283        4.2481192375
  C        37.1449031901       16.1910309816        3.4851499780
  C        38.1411539358       17.1639840118        3.6920758626
  C        37.9422855152       18.1281691070        4.6980957962
  C        36.7715179947       18.1412691053        5.4520102141
  C        39.3899316209       17.1700428822        2.8978697571
  C        39.3826612045       17.1801721559        1.4770161268
  C        38.1736605824       17.2959411548        0.7217039620
  C        20.3316412281       17.9258288737        0.7635531331
  C        20.3545806981       17.9309956831        3.5774743057
  C        34.4771276906       17.2468773320       10.1816813557
  C        35.7789308730       17.1784948294       10.9073784423
  C        35.9916040768       16.2002378149       11.8898480061
  C        37.1764448214       16.1865665947       12.6200668530
  C        38.1758125137       17.1505895667       12.3857977939
  C        37.9692273483       18.1042899028       11.3719876872
  C        36.7821150121       18.1230915655       10.6450374121
  C        39.4223748841       17.1719751101       13.1806332449
  C        39.3994634968       17.1838035432       14.6014500891
  C        38.1819382802       17.2971150769       15.3446950498
  C        35.1118736550       26.6544173869       15.3000619698
  C        35.1754487239       26.6640798340       12.4907343335
  C        26.5739132465       17.8281816919       10.3179943002
  C        25.2583414692       17.8713670097       11.0259235105
  C        24.9927797961       18.8770371152       11.9675817844
  C        23.7754153925       18.9006787141       12.6428712514
  C        22.7937763554       17.9192493709       12.3990050338
  C        23.0537679281       16.9383771941       11.4249814541
  C        24.2722467366       16.9122804218       10.7487591707
  C        21.5297129094       17.9004789459       13.1718756594
  C        21.5530759781       17.8904683326       14.5933104092
  C        22.7715472527       17.7733934518       15.3349066161
  C        14.0467161499       17.8288545518       10.2884575061
  C        15.3514671104       17.8856242012       11.0130787676
  C        15.6089992437       18.8885708669       11.9606571752
  C        16.8183784522       18.9086493528       12.6528632828
  C        17.8043293729       17.9287273128       12.4192790156
  C        17.5516579090       16.9501147891       11.4394296725
  C        16.3417030164       16.9254098077       10.7489645040
  C        19.0734360168       17.9104385518       13.1879602617
  C        19.0718453121       17.9070124356       14.6104227740
  C        17.8649009913       17.8093053034       15.3721325411
  C        46.8062277005       17.2201257564       10.1593530379
  C        45.5178005681       17.1642247889       10.9064767246
  C        45.3108258507       16.1929779713       11.8979970186
  C        44.1303289333       16.1838103822       12.6359278743
  C        43.1281751395       17.1457991891       12.4031914539
  C        43.3322004433       18.0960567503       11.3847665280
  C        44.5133574196       18.1094615510       10.6482474674
  C        41.8765110926       17.1660515341       13.1923141801
  C        41.8835909895       17.1704871882       14.6136739276
  C        43.0936338617       17.2652098487       15.3705544766
  C        20.3185336789       17.9166125652       15.3185232512
  C        20.2975793394       17.8903741009       12.5054925681
  C        46.7885745788       17.2322871210        5.8900962396
  C        45.4868702326       17.1334810809        5.1747086309
  C        45.2658934623       16.1408533903        4.2084780860
  C        44.0790409347       16.1248506106        3.4808886858
  C        43.0865209571       17.0984627057        3.7041594936
  C        43.2973565072       18.0599333753        4.7095478092
  C        44.4851753166       18.0825870568        5.4318810966
  C        41.8419982282       17.1315286584        2.9081855390
  C        41.8661951392       17.1506315062        1.4881760320
  C        43.0854809688       17.2530363484        0.7471018009
  C        46.1531807857       26.6372238375        0.7263332211
  C        46.1625405375       26.6561129405        3.5359776739
  C        14.0459887724       17.8316352673        5.7081729772
  C        15.3673487734       17.9054574653        5.0170135409
  C        15.6410887656       18.9195667642        4.0870111747
  C        16.8701789554       18.9561777252        3.4319250976
  C        17.8539983908       17.9778432815        3.6807161124
  C        17.5871307098       16.9927908382        4.6491023645
  C        16.3600298680       16.9556419254        5.3075734020
  C        19.1213395287       17.9516063325        2.9110699519
  C        19.0968813858       17.9271771768        1.4893140285
  C        17.8770045965       17.8184947873        0.7484390651
  C        28.8064035969       14.0912045749       10.3997169423
  C        28.1906803828       12.9174217802       11.0844996907
  C        28.9085404849       12.1807292081       12.0382378517
  C        28.3068434451       11.1061575848       12.6880212098
  C        26.9731906781       10.7449217918       12.4085124876
  C        26.2777401527       11.4616557818       11.4183349264
  C        26.8772072277       12.5363772688       10.7666650795
  C        26.3023170596        9.6663701539       13.1691788456
  C        26.2879572243        9.6953094291       14.5900738279
  C        26.7841811455       10.8125055163       15.3340830879
  C        32.1807165282       21.2423542985       10.1397449309
  C        32.7769071226       22.4080771431       10.8613935972
  C        32.0204151663       23.0968690773       11.8221846723
  C        32.5871392577       24.1385937263       12.5505592613
  C        33.9267451252       24.5195992908       12.3405090852
  C        34.6667258697       23.8484777750       11.3488850404
  C        34.1017103114       22.8017034579       10.6216099726
  C        34.5500179787       25.5967137307       13.1443926982
  C        34.5251534976       25.5718174326       14.5659682945
  C        34.0044759394       24.4591607408       15.2992704404
  C        25.6836615303        8.6156317942       15.3103815020
  C        25.6682478255        8.6135408477       12.4969760102
  C        32.0922394948       21.1628145660        5.8347744847
  C        32.6549391478       22.3322733477        5.0921852822
  C        31.9096360875       23.0037487683        4.1100839700
  C        32.4758961146       24.0563390546        3.3917267567
  C        33.8019901799       24.4675631371        3.6361317806
  C        34.5277398166       23.8098795938        4.6472787192
  C        33.9660551891       22.7551610126        5.3613613188
  C        34.4392304810       25.5610038260        2.8646041026
  C        34.4665613411       25.5546692726        1.4430033287
  C        33.9755563392       24.4518056332        0.6755418689
  C        40.6281551686       17.1546378462        0.7667220921
  C        40.6133263759       17.1616059988        3.5756802280
  C        28.7507703037       14.0681449686        5.8203597756
  C        28.1346592292       12.9282919092        5.0764970320
  C        28.8614101298       12.2515843780        4.0854768947
  C        28.2819787742       11.1929637837        3.3898599391
  C        26.9588485253       10.7870124967        3.6577476179
  C        26.2487160563       11.4545052193        4.6731574380
  C        26.8274006279       12.5121410340        5.3720699951
  C        26.3163734346        9.6949276750        2.8880152068
  C        26.2960456104        9.7100242554        1.4662212842
  C        26.7853682608       10.8211648694        0.7099826657
  C        18.1355192110        3.1811019142       10.3171748099
  C        17.4063045201        4.2783169963       11.0158074481
  C        16.3904289613        4.0000054760       11.9431774409
  C        15.7427559718        5.0400159999       12.6066571527
  C        16.0948813431        6.3837106790       12.3671234164
  C        17.0844798973        6.6531829890       11.4035770915
  C        17.7335391385        5.6158189211       10.7385307783
  C        15.4705010539        7.4914116138       13.1301115364
  C        15.4857153154        7.4906388440       14.5518173481
  C        16.1873782032        6.4971027470       15.3049850443
  C        42.9458710118       31.8595857267       10.0727924546
  C        43.6462169026       30.7718814596       10.8167617629
  C        44.5914470957       31.0932451561       11.8031107395
  C        45.1971517974       30.0877210009       12.5508084361
  C        44.8710585060       28.7346125914       12.3357323270
  C        43.9456387302       28.4202326531       11.3221475597
  C        43.3368391026       29.4253466575       10.5740539555
  C        45.4886001250       27.6553199903       13.1389497890
  C        45.4927042917       27.6809343599       14.5606451959
  C        44.8056977117       28.6890007149       15.3073131032
  C        14.8566128323        8.5630319249       15.2642011395
  C        14.8752011828        8.5631661308       12.4515306943
  C        42.9464814561       31.9616517132        5.8089526380
  C        43.6918528819       30.8854928988        5.0956695601
  C        44.6561818217       31.1914472838        4.1231199071
  C        45.2777240690       30.1718742735        3.4054011430
  C        44.9542606636       28.8215224984        3.6432692807
  C        44.0212114198       28.5238328373        4.6544564160
  C        43.3929233472       29.5405694250        5.3666569411
  C        45.5631947151       27.7241173429        2.8579708926
  C        45.5333024887       27.7173995999        1.4366738456
  C        44.8270261592       28.7076488400        0.6837055163
  C        35.0847049005       26.6446561585        0.7453132049
  C        35.0503667003       26.6151817811        3.5560249832
  C        18.1486531541        3.2469918603        5.7065007464
  C        17.4301913111        4.3437822160        4.9971394436
  C        16.4147414490        4.0525818673        4.0737999094
  C        15.7664968442        5.0832545588        3.3984269162
  C        16.1214098971        6.4284543339        3.6210031773
  C        17.1130520796        6.7117681051        4.5779984081
  C        17.7606824263        5.6828185908        5.2577425272
  C        15.4908549767        7.5241799765        2.8486423207
  C        15.4966893366        7.5075009936        1.4275133635
  C        16.1935877719        6.5059087721        0.6807966617
  H        10.6723927729       12.4655773085        3.9047491466
  H        11.6946211230       10.5507669834        2.6628965350
  H        15.3918266487       11.1687025764        4.7720904807
  H        14.3513624666       13.0714726383        6.0172953040
  H        13.3759080849       11.6309794368        1.2013416005
  H        50.3227862974       22.7484296306        3.9868370121
  H        49.3196103361       24.6229167742        2.6807988497
  H        45.6421670923       24.1611165771        4.8637122045
  H        46.6631706711       22.2901560525        6.1719507614
  H        47.6295127398       23.5757567388        1.2462618066
  H        14.8724583472        8.5883460406        4.6085525976
  H        50.2872250767       22.7029556437       12.0603750281
  H        49.2691138403       24.5758202683       13.3604072210
  H        45.6103957442       24.1089129214       11.1463576611
  H        46.6526425764       22.2535393865        9.8322043816
  H        47.6074572248       23.5517357416       14.7968759242
  H        40.6568094407       17.1455905083       11.4267223206
  H        48.6870524622       14.0947985692        7.8000217760
  H        10.6813035797       12.4665042918       12.0931650516
  H        11.6895937660       10.5245781204       13.2968460436
  H        15.3937017539       11.1591366662       11.2057525159
  H        14.3651486868       13.0875123915        9.9904705614
  H        13.3755730568       11.6219741424       14.7531251985
  H        47.9301517505       14.2181031991        9.7109164929
  H        47.7800477792       14.3731497652        6.4951651951
  H        49.0840510401       18.5524455106       10.8676267828
  H        10.4162388102       14.1342163675        7.9987317296
  H        24.4883096046        3.0287863637        3.9208295407
  H        25.6318521465        4.8880482893        2.6977736860
  H        23.2587181711        7.7549048820        4.8532504435
  H        22.1329635755        5.8861560090        6.0778846223
  H        23.8169066603        5.7894246897        1.2745429056
  H        36.3566277009       32.1900065665        3.9845376782
  H        35.2086691871       30.3728144818        2.7185983531
  H        37.4709907104       27.4363520654        4.9007208904
  H        38.5985195891       29.2668913981        6.1766736417
  H        36.9815050279       29.4571523626        1.2995305368
  H        25.7535221759        8.6098983564        4.6545150952
  H        36.4527724214       32.2461449845       12.1092071222
  H        35.3379753866       30.4335187638       13.4086645929
  H        37.5433364334       27.4897968028       11.1768052586
  H        38.6319484765       29.3143488184        9.8639773067
  H        37.0203622112       29.4780987309       14.8523907335
  H        46.1093992337       26.5876393526       11.3856545597
  H        44.6685135371       35.1163270408        7.8138976790
  H        24.4298088074        3.0388086047       12.0928298795
  H        25.5581124926        4.8779466047       13.3468643398
  H        23.1642890000        7.7671279683       11.2449627558
  H        22.0474039852        5.9160765864        9.9907926701
  H        23.7891106138        5.7896291425       14.8263140280
  H        44.9544529508       34.3908471315        9.6953969787
  H        44.9025039765       34.2070926067        6.4905878781
  H        40.6668843927       33.2096923540       10.8533516342
  H        23.1503860076        1.9580955376        8.0054993616
  H        25.8118143858       19.6500730439        3.9102427210
  H        23.6324704111       19.7063528852        2.6986676605
  H        22.3776128416       16.1725497049        4.8036784797
  H        24.5637531603       16.1286425332        6.0130865580
  H        23.7239015251       17.6595664381        1.2414961093
  H        35.2097322342       15.4427100200        4.0924797748
  H        37.3007525083       15.4239297530        2.7296529291
  H        38.7056527792       18.8863514409        4.8602925635
  H        36.5983154694       18.9000323536        6.2116148797
  H        37.2348185490       17.4121010446        1.2558007034
  H        20.3624288339       17.9693230346        4.6654088355
  H        35.2091182482       15.4683080055       12.0761379000
  H        37.3421940027       15.4247274799       13.3786770568
  H        38.7359984359       18.8539388794       11.1877558415
  H        36.5991312515       18.8756780180        9.8816755518
  H        37.2491176428       17.4146164166       14.8008466527
  H        35.1612206474       26.6882692168       11.4027406103
  H        28.5121854894       21.0754130556        7.8747088475
  H        25.7534741286       19.6328164046       12.1505794101
  H        23.5688150693       19.6850137590       13.3679233829
  H        22.3043942761       16.1736762227       11.2308848606
  H        24.4890894561       16.1434099573       10.0109752869
  H        23.7020951007       17.6471036446       14.7896101505
  H        29.0040010096       21.7201596531        9.7434035903
  H        29.1774030630       21.7242146331        6.5503280347
  H        32.0856566510       18.5856511924       10.9669889623
  H        27.4055643432       19.0567995645        8.0038985410
  H        14.8508839957       19.6477787904       12.1395299208
  H        17.0144686163       19.6925336324       13.3812826031
  H        18.3025392599       16.1857017579       11.2501756476
  H        16.1348656144       16.1565658098       10.0083178201
  H        16.9222047491       17.6943393639       14.8450545260
  H        46.0919375283       15.4593985360       12.0833134056
  H        43.9691361255       15.4234594690       13.3969244818
  H        42.5656899278       18.8461333334       11.2014344715
  H        44.6887070184       18.8574451454        9.8786580386
  H        44.0345985974       17.3787713003       14.8398859295
  H        20.2914114585       17.9206476290       11.4173747955
  H        46.0396619976       15.3978172285        4.0294173706
  H        43.9077744200       15.3559327262        2.7307199787
  H        42.5340481397       18.8146061069        4.8870069381
  H        44.6723851161       18.8435619804        6.1853435747
  H        44.0202284793       17.3560886270        1.2905628652
  H        46.1995990084       26.6827205391        4.6234165432
  H        52.7411365076       21.0625537388        8.1947016369
  H        14.8806892649       19.6731209317        3.8939745856
  H        17.0807149614       19.7458300456        2.7138407907
  H        18.3374512272       16.2306782756        4.8494366286
  H        16.1393697250       16.1819002330        6.0389125005
  H        16.9434394422       17.7105726231        1.2923950792
  H        52.3220730892       21.6731005802        6.2943996464
  H        52.0129463401       21.7017830310        9.4956031177
  H        49.0681137403       18.6080322045        5.2042184926
  H        13.2476631451       19.0161526535        7.9771577037
  H        29.9358521498       12.4648973296       12.2552555344
  H        28.8647171269       10.5333897443       13.4256922445
  H        25.2474672537       11.1921965899       11.1950361890
  H        26.3381338649       13.1114541048       10.0178289480
  H        27.1385236762       11.6837663157       14.7917146778
  H        30.9910725987       22.7899200860       11.9916071356
  H        31.9945136058       24.6727777932       13.2900882368
  H        35.7037883445       24.1320486686       11.1811373345
  H        34.6784912009       22.2586232034        9.8763229781
  H        33.6530995922       23.5914884199       14.7483040043
  H        25.6991058855        8.5923672911       11.4090332508
  H        30.8833785706       22.6911573672        3.9264588399
  H        31.8897168663       24.5805234533        2.6397796516
  H        35.5537468131       24.1147832994        4.8429592274
  H        34.5324728218       22.2279561005        6.1253960840
  H        33.6033132952       23.5770836466        1.2007335404
  H        40.6075765203       17.1232776296        4.6632622388
  H        32.5236875652       14.1107160993        8.2696092063
  H        29.8810678503       12.5701309964        3.8805611540
  H        28.8546781061       10.6619283087        2.6325867071
  H        25.2247220990       11.1547437949        4.8865239696
  H        26.2767486584       13.0413693365        6.1461097597
  H        27.1392319522       11.6992558491        1.2422282652
  H        33.3517994674       14.1848093675        6.4930954525
  H        33.4136195400       14.4025306792        9.6126697847
  H        32.1419949950       18.3998688599        5.1512057095
  H        30.2014920140       14.1413067203        8.1472455146
  H        16.1182285035        2.9635241909       12.1294757953
  H        14.9531724249        4.8207338061       13.3221948620
  H        17.3671812494        7.6860155740       11.2106432265
  H        18.5158156399        5.8184490856       10.0109338406
  H        16.7541474115        5.7399286537       14.7714820291
  H        44.8275289837       32.1403467214       11.9774653277
  H        45.9368293654       30.3415620781       13.3069044431
  H        43.6833597139       27.3781107294       11.1517093940
  H        42.6006654632       29.1899560433        9.8089754147
  H        44.2304701424       29.4368760512       14.7690342895
  H        14.8515519137        8.5464505288       11.3633084887
  H        44.8995059553       32.2341430932        3.9314742902
  H        46.0244408743       30.4131640840        2.6519993026
  H        43.7646850018       27.4840594982        4.8463766843
  H        42.6468026458       29.3177505409        6.1254725634
  H        44.2686725765       29.4706460979        1.2182849401
  H        35.0037080401       26.6231699837        4.6434571763
  H        36.6054143920       35.1341268021        8.1806833836
  H        16.1434707895        3.0130392938        3.9041885780
  H        14.9740184223        4.8565364569        2.6884741164
  H        17.3968772911        7.7471815554        4.7546847136
  H        18.5438689816        5.8932364556        5.9821779609
  H        16.7652030696        5.7558037153        1.2192287474
  H        36.2789690252       34.4822385386        6.2730374582
  H        36.3816548692       34.2088128293        9.4992496636
  H        40.5796596623       33.2022484089        5.1535663248
  H        17.4711182135        1.9474888233        7.9740529324
  H        29.1420448912       19.4075338869       12.5234735409
  H        30.3479482900       19.3352644639        2.6512219551
  H        32.1426103313       15.6960516299        3.7113292588
  H        31.2922552924       15.5696468463       12.5074337312
  H        28.0709838826       18.2139440456       14.5961072083
  H        29.3584715035       15.2210706830       14.4233789202
  H        31.0964890618       20.5551994457        1.8729085304
  H        32.6495353113       16.9238694882        1.7795717904
  H        28.6596947877       16.8795263598        0.9984620952
  H        32.3379768451       18.2615548240       14.8580644522
  H        18.8546030560        0.8693271071       12.3353364276
  H        40.5281553919       35.2288643593        3.9519368839
  H        42.3247515082       34.4196702018        3.5898158274
  H        22.0877080636        0.6922311243       12.3514287556
  H        11.5969364894       18.7128357775       12.3826295794
  H        52.2645003788       18.4311384192        3.6768972389
  H        49.2552212885       16.4766437351        3.5845832157
  H        10.1494655056       15.7981345811       12.2931419043
  H        50.8497420815       17.6922440353        3.9543096846
  H        10.0458191145       17.3943497798       12.0520266365
  H        20.2163306798        0.0025481990       12.0417155098
  H        39.1839450345       36.1247043515        3.6867226664
 Ni        30.2720242653       16.7908736888        2.9158712887
 Ni        30.9853147553       16.3220885668        0.0795630022
 Ni        30.0114947741       18.9407339479       -0.0008256014
 Ni        30.1847367785       17.4776416961       13.1647555108
  O        10.6499797362       14.3650168956        5.4857924268
  O        12.6132077584       14.6575466158        6.5838718756
  O        49.1483455883       16.8457977213        7.9898484263
  O        50.3502869955       20.9359280375        5.6480784722
  O        48.3485905560       20.5934236978        6.6659541599
  O        11.0521045759       17.0536652976        6.5006336624
  O        50.3211075132       20.8817123348       10.4068838402
  O        48.3468217774       20.5869213277        9.3272422150
  O        49.5438673844       18.2484594658       10.0684058188
  O        12.3591334760       18.6245737398        7.9996413897
  O        48.6933205758       14.1484911520        6.7513303350
  O         8.2098654198       14.2103377615        9.3225625932
  O        10.7353949353       14.5067609337       10.6643192555
  O        12.5718095900       14.5828066929        9.3284750247
  O        22.8445355676        2.0428949270        5.4873355932
  O        21.6056796417        3.5922287460        6.5894831689
  O        42.0581806765       34.1373916423        7.9788284468
  O        37.9813659209       33.1361964558        5.5720824536
  O        39.2169373879       31.5746050978        6.6654755500
  O        20.3084111404        1.0394410115        6.5020836113
  O        38.0247256123       33.1857790293       10.4154616007
  O        39.2186297181       31.5832067971        9.3271665294
  O        40.6522939830       33.7693450825       10.0600306737
  O        18.2556209548        1.3760718986        7.9967812863
  O        44.6222248375       35.1005771321        6.7587473669
  O        24.2054398094       -0.0000196726        9.3207085445
  O        22.7528141602        2.0572806488       10.5836230593
  O        21.6243840423        3.5957659564        9.3424853378
  O        27.5406487257       18.6799652731        5.4121157836
  O        26.7651504760       16.9325272343        6.6477894717
  O        30.6646241175       19.4002258759        8.0096924705
  O        33.6752435660       16.2637647794        5.8278693582
  O        34.3097324311       18.2446160782        6.7442622863
  O        29.6076519903       17.0047208730        6.5800853328
  O        33.6224360714       16.3281817225       10.4101875014
  O        34.3055721512       18.2479006504        9.4063555395
  O        31.6527587123       18.3164462241       10.1404539897
  O        30.3071742855       15.1060833779        8.1413282094
  O        28.5564392303       21.0263573994        6.8247341119
  O        28.5136887866       20.9543439889        9.3996768764
  O        27.4587624330       18.6795794793       10.6532683614
  O        26.6957976184       16.9285727806        9.4078891556
  O        13.1489256429       18.6928505821       10.5874441401
  O        13.9193674215       16.9161497755        9.4048792810
  O        50.5966200828       19.3503471844        8.0206394512
  O        47.6833287124       16.3271272203       10.4173260288
  O        46.9525418198       18.1761413756        9.3240489688
  O        11.0698807697       17.0154030435        9.4896664592
  O        47.6766521642       16.3349604108        5.6531931800
  O        46.9315439860       18.2355565434        6.6665449155
  O        49.5691259895       18.3176675157        5.9823856082
  O        10.3188209313       15.1000698624        7.9970370772
  O        52.6707114304       21.0278139055        9.2418248943
  O        12.1468380923       20.8911588881        6.6732047864
  O        13.1083990396       18.6136047987        5.3254915058
  O        13.9578395906       16.9872619078        6.6650919709
  O        29.9897565584       14.4407608662       10.7396985157
  O        28.0866720583       14.6525205525        9.5009474090
  O        32.1407673785       16.8530846184        8.0921432936
  O        30.9673440015       20.9558666473       10.4027126526
  O        32.9482556449       20.6018876466        9.3350532921
  O        29.5673570960       17.0755895255        9.5726554035
  O        30.8824427828       20.8124167220        5.5704943880
  O        32.8692070443       20.5894549775        6.6622689035
  O        31.6883814796       18.2383400133        5.9938460978
  O        28.2953031871       18.6681833597        8.0095309787
  O        32.4974564610       14.2107664811        9.3386082071
  O        32.4409416852       14.1454291639        6.8306679335
  O        29.9237744544       14.4320126111        5.4993079133
  O        28.0389127921       14.5891843415        6.7547314624
  O        17.8892321299        1.9666314727       10.6627632045
  O        18.9562241497        3.5271165746        9.4079158664
  O        39.1685911890       34.1386273281        7.9971116815
  O        43.2801816237       33.0589309796       10.3317096141
  O        42.0343177443       31.5064896410        9.2416089936
  O        20.3178185573        1.0368639198        9.4799517083
  O        43.2760169638       33.1825387438        5.5748906745
  O        42.0051970833       31.5840910601        6.5829840724
  O        40.5788645718       33.7748986496        5.9356971544
  O        22.3673977478        1.3846462419        7.9978850829
  O        36.6728000234       35.0997638771        9.2333080598
  O        16.4457067672        0.0641456205        6.6682113947
  O        17.9364719664        2.0432412198        5.3264419098
  O        18.9190201442        3.5931028483        6.6658697459
  O        29.7425137089       18.6790225313        3.9157016910
  O        29.8245643232       18.9811652160       11.9672320857
  O        31.5567492065       16.2634698222        4.2462453252
  O        31.3840441677       16.4014896467       12.0010472762
  O        32.0184133433       16.1950151709        1.6615652925
  O        29.5258785586       17.2972176226        1.1632392934
  O        30.1630366796       15.7617401917       14.4020741271
  O        31.4187727198       17.9501521202       14.9066654615
  O        30.7940188527       19.6417791972        1.7485772807
  O        28.9356282630       18.6146895127       14.4138424339
  O        39.4568037604       35.2438456977        4.0019357653
  O        19.1424657015        0.0049215399       11.9904114473
  O        41.9694475389       35.1726718066        4.0870816703
  O        21.6912976990       -0.0693169885       11.8959471451
  O        51.3648299874       18.6142522576        4.0054157470
  O        10.7512262499       18.7471588339       11.9049367094
  O        50.0797360542       16.4127950885        4.0917557166
  O         9.5239554254       16.4831323920       11.9912102479
 Zr         9.2971297006       16.0524988602        6.1825795098
 Zr        49.8362801643       16.0064977881        9.7463785290
 Zr        22.0737177053        0.0305930706        6.1885893553
 Zr        42.4613511983       35.1540277114        9.8009064946
 Zr        29.6321782727       19.0278877072        6.2397038810
 Zr        29.5779030898       19.1831162164        9.8370688412
 Zr        11.0382916062       19.0517034505        9.8277416001
 Zr        11.0440689353       19.1546301522        6.2510587615
 Zr        31.3540841308       16.0968896597        9.8888961233
 Zr        31.4284495319       15.9552698487        6.3434293711
 Zr        18.6017270621       -0.0005243755        9.7634367022
 Zr        18.5070335605       -0.0072500302        6.2137521619
 Zr        12.3022230329       16.3234875434        7.9902802872
 Zr        48.6173133969       18.8331969070        8.0107599276
 Zr        20.3157944574        2.4744008114        7.9902581430
 Zr        40.6438598900       32.6876925935        7.9778538883
 Zr        28.3526631157       16.3209258425        8.0847437114
 Zr        32.6347301847       18.8352103025        8.0538689629
  H        29.0562346570       15.9621582067        3.1926506109
  H        28.7808315350       18.6378283460        3.7473124537
