     569
 i =       26, E =     -4729.4676380103
  C        11.8585284185       14.0533779334        5.7416185083
  C        12.4558794417       12.8902391100        5.0236439534
  C        11.7046053444       12.1722450643        4.0809114357
  C        12.2809410311       11.1100588286        3.3885086785
  C        13.6211117664       10.7392521932        3.6171321114
  C        14.3536713357       11.4416718699        4.5919398205
  C        13.7808399983       12.5066028405        5.2835425453
  C        14.2608135440        9.6488099530        2.8436005827
  C        14.2561950769        9.6568714897        1.4218879060
  C        13.7428909427       10.7588806094        0.6678986048
  C        49.1265239124       21.2334220526        5.8797757331
  C        48.5499024246       22.4011978544        5.1527506439
  C        49.2998025339       23.0682447388        4.1714158635
  C        48.7328760243       24.1073394002        3.4382107958
  C        47.4024291138       24.5093102354        3.6670196870
  C        46.6716544840       23.8607171849        4.6808759008
  C        47.2340529162       22.8158146122        5.4102442698
  C        46.7722625400       25.5869748373        2.8696936630
  C        46.7615525152       25.5573937645        1.4479208416
  C        47.2614150540       24.4422912931        0.7044002668
  C        14.8604235185        8.5707088842        0.7085843381
  C        14.8917225043        8.5968591678        3.5201923549
  C        49.1129912820       21.2035955669       10.1453083540
  C        48.5278364770       22.3649248378       10.8722437285
  C        49.2669509086       23.0254022375       11.8654554791
  C        48.6906377119       24.0599403802       12.5968835301
  C        47.3603245078       24.4570418208       12.3584356716
  C        46.6400957744       23.8124107523       11.3345791850
  C        47.2135858732       22.7764871297       10.6028009356
  C        46.7219157816       25.5319420435       13.1495249019
  C        46.7338564270       25.5282729263       14.5712341016
  C        47.2491862451       24.4290239293       15.3276263426
  C        40.6203864594       17.0832811762       15.3060825478
  C        40.6302177849       17.0945297242       12.4961131319
  C        11.8827596804       14.0863022853       10.2853633713
  C        12.4717716800       12.9101639364       10.9891554301
  C        11.7146702543       12.1780354142       11.9164824536
  C        12.2811105994       11.0955422667       12.5849420157
  C        13.6194359198       10.7205886688       12.3520680369
  C        14.3567467708       11.4347792384       11.3896770500
  C        13.7914810742       12.5159774021       10.7169305286
  C        14.2532100689        9.6241112755       13.1226680894
  C        14.2521716225        9.6443754065       14.5445200982
  C        13.7422570367       10.7532847292       15.2916383124
  C        22.5121474529        3.2452917623        5.7532303449
  C        23.2260447714        4.3527570990        5.0548318360
  C        24.2247864703        4.0768264425        4.1092256040
  C        24.8499912323        5.1189557480        3.4288762180
  C        24.4922179095        6.4598932599        3.6732864256
  C        23.5218873839        6.7272963019        4.6562740735
  C        22.8924007895        5.6871057913        5.3352020773
  C        25.0934800438        7.5697220462        2.8978848321
  C        25.0659750237        7.5626889844        1.4760803486
  C        24.3698385916        6.5591918438        0.7300381847
  C        38.2987972944       31.9258449006        5.8484776731
  C        37.5615473806       30.8369795645        5.1429750275
  C        36.6062806152       31.1419046587        4.1600468964
  C        35.9806317683       30.1236056018        3.4455805203
  C        36.2906563537       28.7702315897        3.6898590760
  C        37.2152323443       28.4736820074        4.7105246296
  C        37.8463707573       29.4909178901        5.4232616039
  C        35.6803632871       27.6811865195        2.8920863915
  C        35.7074808820       27.6995451610        1.4668395700
  C        36.4193527107       28.6953800884        0.7303959395
  C        25.6828654748        8.6361448813        0.7559068401
  C        25.6857630301        8.6475934251        3.5683001876
  C        38.3264117507       31.9591265912       10.1571598815
  C        37.6024131705       30.8855658071       10.8965542980
  C        36.6773922978       31.1921633494       11.9073670675
  C        36.0651461361       30.1733801754       12.6348275978
  C        36.3595671470       28.8183508913       12.3771387779
  C        37.2616260087       28.5224727695       11.3353910475
  C        37.8770800196       29.5378465453       10.6096369586
  C        35.7469025228       27.7201503314       13.1596971336
  C        35.7414011938       27.7194718934       14.5854399036
  C        36.4346816017       28.7055072520       15.3514600211
  C        46.1358361611       26.6208860936       15.2813925413
  C        46.0877979252       26.5802334881       12.4734993702
  C        22.4618893143        3.2568611166       10.2587464691
  C        23.1569607492        4.3660854188       10.9821660207
  C        24.1582151116        4.0806440310       11.9243033336
  C        24.7865151747        5.1107925870       12.6207698397
  C        24.4344729464        6.4572858608       12.3982554940
  C        23.4564364657        6.7358756090       11.4244326611
  C        22.8234582881        5.7060411081       10.7286123023
  C        25.0637499205        7.5572124949       13.1730861783
  C        25.0512243964        7.5555346659       14.5963222965
  C        24.3604075236        6.5571604982       15.3530504899
  C        26.6273704225       17.8580902679        5.7393217076
  C        25.3254302380       17.9201438218        5.0155000205
  C        25.0571354601       18.9236229235        4.0711978618
  C        23.8361397576       18.9493368082        3.3998195832
  C        22.8482516536       17.9751776358        3.6504468536
  C        23.1126999379       16.9952203253        4.6257321978
  C        24.3336507653       16.9644971326        5.2952991801
  C        21.5725095481       17.9593344713        2.8919532036
  C        21.5745707922       17.9318894372        1.4700691334
  C        22.7810116050       17.7984118289        0.7130009212
  C        34.4462616355       17.1897519734        5.9191757932
  C        35.7365830751       17.1428186743        5.1776678762
  C        35.9389914240       16.1758992872        4.1793189518
  C        37.1174920875       16.1633351058        3.4398962510
  C        38.1284771178       17.1152920992        3.6776183846
  C        37.9297206299       18.0615551867        4.7017652608
  C        36.7476999422       18.0808034681        5.4383930571
  C        39.3796148166       17.1223756323        2.8867872951
  C        39.3703041516       17.1207493318        1.4640283995
  C        38.1613949876       17.2353705549        0.7088649330
  C        20.3288742980       17.9488904320        0.7608835211
  C        20.3481815170       17.9599228393        3.5748345854
  C        34.4443721090       17.2320352254       10.1855463589
  C        35.7448066748       17.1309893591       10.9019793761
  C        35.9377430255       16.1631070597       11.8997601666
  C        37.1274332966       16.1297783691       12.6222676571
  C        38.1518585246       17.0638386422       12.3698796053
  C        37.9642253206       18.0029131629       11.3376252361
  C        36.7749156543       18.0411530233       10.6164672516
  C        39.4000504774       17.0803379988       13.1639846743
  C        39.3805643513       17.0998457367       14.5861254087
  C        38.1662286610       17.2240279191       15.3316768223
  C        35.0981365916       26.6462532873       15.2888919273
  C        35.1627539036       26.6455211028       12.4765544744
  C        26.5928733910       17.7905330809       10.3622101392
  C        25.2775706021       17.8499624202       11.0605599707
  C        25.0142218858       18.8593446308       11.9992541346
  C        23.7887196139       18.8980061867       12.6583734224
  C        22.7994596378       17.9263517626       12.4053189436
  C        23.0582793630       16.9426930778       11.4335040977
  C        24.2825626960       16.9030965821       10.7700954544
  C        21.5320965503       17.9148716966       13.1720559222
  C        21.5536537774       17.9066311037       14.5934718174
  C        22.7703779739       17.7850425597       15.3369229843
  C        14.0468044259       17.8301483319       10.2870226520
  C        15.3533420072       17.8908491999       11.0094907397
  C        15.6107092098       18.8978240010       11.9527273759
  C        16.8207327475       18.9220865624       12.6437818430
  C        17.8073369646       17.9421779063       12.4132905626
  C        17.5550129716       16.9595496201       11.4374104016
  C        16.3443579944       16.9308928055       10.7480026798
  C        19.0759637620       17.9266530158       13.1831492515
  C        19.0724202487       17.9255062000       14.6058446672
  C        17.8644651729       17.8287991082       15.3661301297
  C        46.8022357319       17.2154190398       10.1562815505
  C        45.5086373155       17.1434717610       10.8949465238
  C        45.3043451020       16.1595226818       11.8750235055
  C        44.1201349319       16.1304423034       12.6066230472
  C        43.1088670466       17.0847981763       12.3808498390
  C        43.3095515425       18.0469585146       11.3723261199
  C        44.4948463692       18.0802297631       10.6415960665
  C        41.8561575756       17.0885782125       13.1710579024
  C        41.8653784079       17.0946258263       14.5935964093
  C        43.0759130789       17.1963291522       15.3480702728
  C        20.3178595223       17.9364563106       15.3160967261
  C        20.3013676496       17.9050435878       12.5029234533
  C        46.7853968361       17.2329191723        5.8856307884
  C        45.4853712895       17.1306150664        5.1641777365
  C        45.2681884811       16.1330281912        4.2012734292
  C        44.0818163326       16.1070405191        3.4722784754
  C        43.0820561469       17.0757895354        3.6879180840
  C        43.2907823067       18.0446268460        4.6875871970
  C        44.4780253353       18.0767843893        5.4121635976
  C        41.8343903751       17.0948479511        2.8930455183
  C        41.8545009005       17.0965208472        1.4711735818
  C        43.0708111927       17.1940844426        0.7254167866
  C        46.1535653305       26.6372786240        0.7261528864
  C        46.1621305263       26.6560276364        3.5358044606
  C        14.0444252499       17.8321259181        5.7083940286
  C        15.3650103603       17.9090237296        5.0156150940
  C        15.6348684936       18.9275606066        4.0894189127
  C        16.8626420009       18.9695150882        3.4323427305
  C        17.8483781498       17.9922303286        3.6762454526
  C        17.5849886772       17.0016382195        4.6398208868
  C        16.3590360702       16.9592258004        5.3002159536
  C        19.1159300503       17.9731577440        2.9070181667
  C        19.0932856660       17.9489658415        1.4851682289
  C        17.8745824711       17.8390212006        0.7426249844
  C        28.8036124881       14.0801618444       10.3632690200
  C        28.1962935957       12.9135884640       11.0600122901
  C        28.9055311389       12.2087365552       12.0443226864
  C        28.3058316610       11.1390379325       12.7042229826
  C        26.9831851528       10.7506673167       12.4065187726
  C        26.2972806305       11.4379214772       11.3884561180
  C        26.8936045849       12.5075535247       10.7266346418
  C        26.3113316357        9.6743855460       13.1700118119
  C        26.2869206463        9.7080437214       14.5912777523
  C        26.7728852578       10.8290212923       15.3364369839
  C        32.1340893237       21.2140065131       10.1760477201
  C        32.7213651070       22.3878407723       10.8786304959
  C        31.9777012805       23.0880171602       11.8444209858
  C        32.5555247543       24.1296023887       12.5629089465
  C        33.8938099118       24.5115680059       12.3365294995
  C        34.6158389470       23.8378363250       11.3310497230
  C        34.0428415268       22.7872731552       10.6177033761
  C        34.5290332097       25.5845330211       13.1339784847
  C        34.5055333779       25.5632965343       14.5588178400
  C        33.9908036273       24.4533079746       15.2959328774
  C        25.6808094696        8.6282614250       15.3105777240
  C        25.6818394453        8.6180237713       12.4972228171
  C        32.0972261420       21.1631706790        5.8364336282
  C        32.6552425347       22.3302492944        5.0994831796
  C        31.9210174381       22.9913372980        4.1005367470
  C        32.4907899380       24.0400663434        3.3820230574
  C        33.8106633371       24.4660636329        3.6404427914
  C        34.5226590519       23.8236678645        4.6736131804
  C        33.9593108857       22.7701128360        5.3865490072
  C        34.4503612272       25.5520203952        2.8635269644
  C        34.4645717867       25.5470966781        1.4382942894
  C        33.9709706648       24.4455986294        0.6744912727
  C        40.6146360091       17.0892801044        0.7513532050
  C        40.6057044549       17.1268047058        3.5618277828
  C        28.7223359519       14.0952142072        5.8149680882
  C        28.1061658542       12.9493744566        5.0861814306
  C        28.8305612339       12.2758460510        4.0898608980
  C        28.2509663921       11.2185415042        3.3938148581
  C        26.9298635554       10.8075233631        3.6649594457
  C        26.2236584157       11.4689855385        4.6879916638
  C        26.8015706174       12.5269364043        5.3877028414
  C        26.2900927283        9.7157200763        2.8915574643
  C        26.2776583976        9.7291731722        1.4688743922
  C        26.7661481389       10.8407258740        0.7125901947
  C        18.1355786369        3.1804761995       10.3171385939
  C        17.4062989040        4.2779799910       11.0159940646
  C        16.3902897517        3.9996549319       11.9431322803
  C        15.7425124715        5.0396562846       12.6066323716
  C        16.0946920593        6.3833039180       12.3671680412
  C        17.0845058891        6.6528203077       11.4038866295
  C        17.7336434684        5.6154308477       10.7388865490
  C        15.4702146125        7.4910509532       13.1301122691
  C        15.4857625741        7.4907051877       14.5518270022
  C        16.1876258501        6.4972876801       15.3049730951
  C        42.9456959352       31.8595637702       10.0727285585
  C        43.6460906851       30.7718451787       10.8168487672
  C        44.5920809090       31.0931690270       11.8024491793
  C        45.1978023604       30.0876359684       12.5501447898
  C        44.8709286524       28.7346382882       12.3356529542
  C        43.9445052954       28.4202772541       11.3230183271
  C        43.3356271610       29.4254293406       10.5750120205
  C        45.4886478052       27.6553618405       13.1387943002
  C        45.4929865568       27.6809584744       14.5605043502
  C        44.8058573392       28.6889877644       15.3071022485
  C        14.8565684051        8.5631126852       15.2641347725
  C        14.8744884171        8.5625082351       12.4514733550
  C        42.9462310322       31.9615893201        5.8090025188
  C        43.6913810488       30.8853830059        5.0952619702
  C        44.6567198022       31.1912625666        4.1237199283
  C        45.2782379784       30.1716757416        3.4059470541
  C        44.9537171773       28.8214402545        3.6429176608
  C        44.0192415308       28.5237618516        4.6527419426
  C        43.3909501767       29.5405490155        5.3648962321
  C        45.5629315555       27.7240490383        2.8577332455
  C        45.5334575627       27.7173761071        1.4364214776
  C        44.8271208526       28.7076117969        0.6835025134
  C        35.0788392779       26.6373222255        0.7357029585
  C        35.0735072554       26.6039778389        3.5486460535
  C        18.1488522426        3.2466892046        5.7067547169
  C        17.4303699567        4.3438226485        4.9971819635
  C        16.4149018479        4.0526172457        4.0739420032
  C        15.7666019000        5.0832732035        3.3984980022
  C        16.1215626743        6.4284352234        3.6209762530
  C        17.1133527434        6.7117814764        4.5777851605
  C        17.7610132230        5.6828121344        5.2575480000
  C        15.4909304974        7.5241640271        2.8485952952
  C        15.4969444683        7.5077570519        1.4274495864
  C        16.1939253571        6.5061778655        0.6807862990
  H        10.6727988007       12.4670550369        3.9031204433
  H        11.6948775814       10.5522885893        2.6612422986
  H        15.3902419450       11.1660191616        4.7747020304
  H        14.3498666936       13.0688023040        6.0200908867
  H        13.3756720344       11.6309655625        1.2011194535
  H        50.3224035564       22.7480176381        3.9864588163
  H        49.3191912260       24.6223790597        2.6803544663
  H        45.6422570997       24.1617018465        4.8642441400
  H        46.6630204162       22.2908536619        6.1725175235
  H        47.6296402684       23.5757372278        1.2460110974
  H        14.8718904345        8.5878307059        4.6084950719
  H        50.2868673995       22.7023277768       12.0606145368
  H        49.2688543887       24.5751798395       13.3606584291
  H        45.6107878500       24.1098665322       11.1453162707
  H        46.6527106489       22.2545565422        9.8311183362
  H        47.6076914218       23.5517588548       14.7967891802
  H        40.6339664606       17.0569237429       11.4084065631
  H        48.6868893786       14.0948116620        7.7999891171
  H        10.6815847473       12.4679360500       12.0947845917
  H        11.6895467673       10.5259829351       13.2984946964
  H        15.3916368687       11.1556696446       11.2025581307
  H        14.3633737363       13.0842113787        9.9871723007
  H        13.3751702849       11.6218153980       14.7530561322
  H        47.9301006540       14.2178759517        9.7107782189
  H        47.7797767595       14.3727337164        6.4949980051
  H        49.0820146724       18.5518634234       10.8667663365
  H        10.4156943160       14.1343683124        7.9986808277
  H        24.4889850562        3.0392145205        3.9173431217
  H        25.6245211986        4.9038738637        2.6958686779
  H        23.2377129927        7.7591872505        4.8518689936
  H        22.1211447729        5.8849091101        6.0755887634
  H        23.8118463784        5.8000619318        1.2703649857
  H        36.3785207746       32.1858165109        3.9574866060
  H        35.2414555647       30.3682253028        2.6859005280
  H        37.4661037121       27.4337125587        4.9093140521
  H        38.5855344901       29.2645942054        6.1882291148
  H        36.9885602260       29.4423739421        1.2758353192
  H        25.7234898301        8.6285809851        4.6560078611
  H        36.4584825051       32.2361270810       12.1203160511
  H        35.3432269878       30.4202482057       13.4101353129
  H        37.5044162906       27.4824655874       11.1273558635
  H        38.5958502792       29.3104779533        9.8260552699
  H        37.0165738047       29.4598161587       14.8297433362
  H        46.1089293306       26.5876285547       11.3854561130
  H        44.6680815161       35.1160771796        7.8139738058
  H        24.4352278094        3.0423911558       12.0927432795
  H        25.5662950255        4.8808049523       13.3437278577
  H        23.1721995144        7.7703747225       11.2426485999
  H        22.0528019472        5.9198193020        9.9915486176
  H        23.7945930901        5.7971588926       14.8220116031
  H        44.9532800311       34.3901060488        9.6951031794
  H        44.9008408965       34.2064963761        6.4906803437
  H        40.6639119588       33.2075377993       10.8521924950
  H        23.1504481225        1.9577737863        8.0055011615
  H        25.8102232333       19.6845089649        3.8798563330
  H        23.6323692356       19.7324941888        2.6727503890
  H        22.3623410770       16.2333123635        4.8267043156
  H        24.5489087224       16.1937886275        6.0315448185
  H        23.7208654343       17.6726444407        1.2428011197
  H        35.1561422212       15.4456939139        3.9895193660
  H        37.2707876046       15.4062446728        2.6740359512
  H        38.7013052620       18.8052445068        4.8900888067
  H        36.5796092185       18.8273587553        6.2111420385
  H        37.2228613711       17.3648918856        1.2402385237
  H        20.3539903319       18.0008104681        4.6626746215
  H        35.1364900986       15.4581098529       12.1096115147
  H        37.2745526538       15.3764122865       13.3929888136
  H        38.7481383402       18.7299966009       11.1362199457
  H        36.6118696992       18.7855323502        9.8409601866
  H        37.2311431408       17.3446270334       14.7924465157
  H        35.1478881063       26.6665253544       11.3883425049
  H        28.4998258080       21.0980401922        7.9026017108
  H        25.7808450080       19.6065123713       12.1925050147
  H        23.5829401999       19.6846496599       13.3810391724
  H        22.3032988165       16.1852509639       11.2329791979
  H        24.4977013642       16.1314841614       10.0348162347
  H        23.7019218585       17.6486969827       14.7959154890
  H        28.9753433604       21.7137353688        9.7751104206
  H        29.1543114314       21.7443278392        6.5529588550
  H        32.1377833891       18.5235502543       10.9770510831
  H        27.3448453011       19.0690285651        8.0729827454
  H        14.8516228795       19.6565762890       12.1294701394
  H        17.0163110604       19.7089292977       13.3691589474
  H        18.3061061450       16.1946599563       11.2509077409
  H        16.1374614057       16.1589058188       10.0106003333
  H        16.9224556046       17.7134853495       14.8378658573
  H        46.0912253422       15.4314608507       12.0574588967
  H        43.9639813426       15.3605549458       13.3591060002
  H        42.5372387800       18.7920447888       11.1928026399
  H        44.6652747588       18.8383682700        9.8807283319
  H        44.0159944288       17.3081981924       14.8155361869
  H        20.2966747717       17.9331282673       11.4147257016
  H        46.0443238828       15.3913615187        4.0266826126
  H        43.9162242678       15.3315621096        2.7275647470
  H        42.5249601961       18.7978790657        4.8605160241
  H        44.6590382312       18.8434136509        6.1615573824
  H        44.0072159292       17.3032643205        1.2648384510
  H        46.1986270251       26.6825351908        4.6232646368
  H        52.7406852235       21.0624897334        8.1946119944
  H        14.8723377545       19.6801643985        3.9012124312
  H        17.0706665501       19.7626943399        2.7174034371
  H        18.3370235721       16.2398883786        4.8350301074
  H        16.1404165739       16.1817986743        6.0283113501
  H        16.9401916926       17.7314985591        1.2853128565
  H        52.3210084362       21.6728620314        6.2949047799
  H        52.0123383052       21.7013763677        9.4956793484
  H        49.0667092600       18.6080615666        5.2044248071
  H        13.2470103035       19.0172863961        7.9768963112
  H        29.9214546255       12.5156055998       12.2829916044
  H        28.8584296825       10.5916755843       13.4646913228
  H        25.2755902294       11.1492534489       11.1504169436
  H        26.3593501350       13.0586870950        9.9567486183
  H        27.1262602996       11.7022979235       14.7965106166
  H        30.9443437228       22.8011785089       12.0240312967
  H        31.9721157142       24.6663968566       13.3077438538
  H        35.6500834620       24.1207336662       11.1456442038
  H        34.6119531516       22.2428190857        9.8675991952
  H        33.6389636261       23.5818293629       14.7514667081
  H        25.7195564404        8.5935117808       11.4095435378
  H        30.9026690255       22.6704462260        3.8940158700
  H        31.9121316747       24.5491561118        2.6143733933
  H        35.5430189413       24.1375080003        4.8839624457
  H        34.5209688175       22.2553300241        6.1622971616
  H        33.6048901369       23.5673484208        1.1982911966
  H        40.6025903621       17.0985069075        4.6498032037
  H        32.5046283360       14.1540168797        8.2527324079
  H        29.8468664870       12.5985549400        3.8757082900
  H        28.8222031451       10.6940398666        2.6310192933
  H        25.2018338264       11.1653168531        4.9061358442
  H        26.2501486138       13.0512917853        6.1645521491
  H        27.1127794883       11.7233982906        1.2421833389
  H        33.3048953702       14.2013638455        6.4570309011
  H        33.4096609929       14.3894545569        9.6007645079
  H        32.1151497206       18.4347278305        5.1443603142
  H        30.2032689862       14.1921751274        8.0773458872
  H        16.1181409172        2.9631208721       12.1292967408
  H        14.9528537248        4.8202644257       13.3220649570
  H        17.3672300415        7.6856707368       11.2110837104
  H        18.5160250639        5.8178929720       10.0113471397
  H        16.7541945856        5.7399991898       14.7713987673
  H        44.8286016853       32.1402544273       11.9763076625
  H        45.9379373214       30.3413773075       13.3058330353
  H        43.6812060485       27.3782704784       11.1534406213
  H        42.5983381861       29.1902077482        9.8109481203
  H        44.2303942120       29.4366515309       14.7687539154
  H        14.8504672570        8.5453793403       11.3632632173
  H        44.9007810243       32.2339312871        3.9328457432
  H        46.0256452496       30.4128758144        2.6531949315
  H        43.7613978351       27.4841014686        4.8435064836
  H        42.6435346427       29.3178619019        6.1224844620
  H        44.2685124082       29.4703984058        1.2181411204
  H        35.0356586657       26.6125777399        4.6364976415
  H        36.6053059741       35.1335058026        8.1809983165
  H        16.1436930780        3.0130191809        3.9044808414
  H        14.9740880124        4.8564268861        2.6886173327
  H        17.3971875554        7.7472122905        4.7543522245
  H        18.5442030516        5.8930709289        5.9820383740
  H        16.7654336912        5.7560412511        1.2193044803
  H        36.2803093232       34.4804753151        6.2737632884
  H        36.3833281908       34.2080059584        9.5000813153
  H        40.5778825447       33.2009518630        5.1543843608
  H        17.4714724337        1.9461684581        7.9741356485
  H        29.1886284432       19.0418017876       12.9958795787
  H        28.6817923576       18.6884968975        3.7165187810
  H        32.0134689469       15.8528179694        3.5936212205
  H        31.2640529570       15.3828577051       12.4727489104
  H        27.9866866300       17.9075699644       14.3428662881
  H        29.3061877048       15.0350329444       14.6080081904
  H        32.5479338513       17.2861113629        1.0007887874
  H        18.8541704924        0.8691274269       12.3351484591
  H        40.5280762895       35.2290791907        3.9522846359
  H        42.3231607677       34.4180802418        3.5913236386
  H        22.0877438588        0.6925476007       12.3507718209
  H        11.5969475610       18.7129494789       12.3824501137
  H        52.2645127072       18.4305963342        3.6774105850
  H        49.2551167330       16.4770224789        3.5845774225
  H        10.1503146771       15.7980367339       12.2926230065
  H        50.8494067320       17.6922986276        3.9543821412
  H        10.0459211996       17.3943532013       12.0520858585
  H        20.2153292058        0.0020146578       12.0419283622
  H        39.1838737532       36.1246024610        3.6868360237
 Ni        30.6466712229       17.4053444500        2.4165340741
 Ni        30.9470142760       16.1034222551       -0.0846681450
 Ni        29.7138838703       18.0394488897        0.0839968368
 Ni        30.1008948532       17.0829486816       13.4071343586
  O        10.6498954925       14.3651925293        5.4858595901
  O        12.6131485798       14.6576219345        6.5839003746
  O        49.1478565392       16.8460567486        7.9898123984
  O        50.3501888449       20.9359333887        5.6482862052
  O        48.3485346519       20.5932603130        6.6660098944
  O        11.0512224609       17.0540444811        6.5006324226
  O        50.3209601691       20.8815936530       10.4067564063
  O        48.3467549517       20.5866896968        9.3270720027
  O        49.5435459256       18.2484433952       10.0682913677
  O        12.3590792855       18.6245035056        7.9997162969
  O        48.6931923069       14.1486077907        6.7512821020
  O         8.2098608998       14.2103465187        9.3224995022
  O        10.7353763731       14.5068118619       10.6643250201
  O        12.5717815288       14.5829179263        9.3284525479
  O        22.8449147473        2.0442653886        5.4869251639
  O        21.6055301422        3.5924557184        6.5899870336
  O        42.0576326324       34.1369845661        7.9789525137
  O        37.9815434189       33.1358548237        5.5717827462
  O        39.2169419534       31.5747457985        6.6652441715
  O        20.3083014573        1.0393748042        6.5020113597
  O        38.0240130700       33.1844157112       10.4156021770
  O        39.2186024745       31.5831715099        9.3270753044
  O        40.6521990603       33.7690321765       10.0600896035
  O        18.2564160407        1.3753731381        7.9968202849
  O        44.6221924346       35.1005463434        6.7587425747
  O        24.2053296697        0.0000367814        9.3208005583
  O        22.7534403958        2.0585748009       10.5844392709
  O        21.6250591183        3.5968788327        9.3440447559
  O        27.5582157865       18.6926191212        5.4035121957
  O        26.7317831723       16.9941739837        6.6636425840
  O        30.6259579692       19.3570195971        8.0762739635
  O        33.5916825672       16.2737531858        5.6709925935
  O        34.2730232746       18.1674531604        6.7367634576
  O        29.5683835713       17.0657714871        6.5724801253
  O        33.5579089495       16.3398128909       10.4116078453
  O        34.2978499891       18.2426151956        9.4073311218
  O        31.6373629811       18.3057681939       10.1734704894
  O        30.3133067937       15.1572807637        8.0822392295
  O        28.5530807334       21.0337622280        6.8411048394
  O        28.5104141990       20.9505644514        9.3925542186
  O        27.5052202802       18.6064862707       10.7376384913
  O        26.6945990661       16.9302117937        9.4162986781
  O        13.1489806021       18.6931908894       10.5873111288
  O        13.9197195749       16.9162165038        9.4050342892
  O        50.5957563704       19.3501952908        8.0206178611
  O        47.6834120436       16.3268530698       10.4170476188
  O        46.9506627628       18.1754875021        9.3254096814
  O        11.0694806555       17.0156722044        9.4896774607
  O        47.6759051452       16.3358617643        5.6528198886
  O        46.9264826028       18.2357806326        6.6639334688
  O        49.5682736597       18.3177364868        5.9822914926
  O        10.3185213857       15.1002513858        7.9970662941
  O        52.6707061472       21.0279226133        9.2418560699
  O        12.1468071944       20.8911919809        6.6731797418
  O        13.1074779868       18.6140671560        5.3255460810
  O        13.9574000618       16.9873272591        6.6646685785
  O        29.9945019244       14.4284065645       10.6630369543
  O        28.0743464361       14.6583634055        9.4840307186
  O        32.0770175216       16.8633059028        8.0753099224
  O        30.9284350404       20.8845962257       10.4934708992
  O        32.8677219975       20.5972262517        9.3338247790
  O        29.5578372988       17.0830416591        9.5765825156
  O        30.8772306034       20.8071301747        5.5748195831
  O        32.8639175996       20.5831937459        6.6680983985
  O        31.6706365403       18.2528419947        5.9903241851
  O        28.2349426089       18.6810585141        8.0770576994
  O        32.4909825842       14.2130933964        9.3278845038
  O        32.4038493612       14.2176718868        6.8209834233
  O        29.9056563269       14.4399013679        5.4958067480
  O        28.0074781421       14.6485909975        6.7354984870
  O        17.8890842801        1.9664470277       10.6628679011
  O        18.9562223792        3.5270912237        9.4080083500
  O        39.1684592600       34.1383999417        7.9971775325
  O        43.2802460100       33.0589364344       10.3316965138
  O        42.0345487002       31.5063927182        9.2415425221
  O        20.3175278961        1.0364170617        9.4804761404
  O        43.2761346612       33.1825202947        5.5748827915
  O        42.0052858516       31.5840139699        6.5829992154
  O        40.5788931879       33.7746133089        5.9358161158
  O        22.3672673281        1.3846463156        7.9980302485
  O        36.6727873944       35.0995210044        9.2335449324
  O        16.4455206584        0.0638929918        6.6681355562
  O        17.9364429591        2.0434036199        5.3263478653
  O        18.9190988499        3.5931493551        6.6660407334
  O        29.6504464910       18.8243504079        3.8363704472
  O        29.7395897554       19.2843367080       12.1544126192
  O        31.3858347264       16.4094066122        4.0890683089
  O        31.2996067040       16.2718135710       12.0667000744
  O        31.9903423672       16.5593491373        1.3437666784
  O        30.1970207164       15.3786663286       14.4075346065
  O        28.8742043728       18.3075389644       14.3312683247
  O        39.4568828349       35.2438033603        4.0019579311
  O        19.1418804249        0.0045692685       11.9905669344
  O        41.9697297949       35.1728429159        4.0873003905
  O        21.6913972403       -0.0693313215       11.8958280569
  O        51.3648464412       18.6142251801        4.0054622126
  O        10.7511948467       18.7472651862       11.9049093070
  O        50.0796766553       16.4128999898        4.0917092375
  O         9.5245138923       16.4829966644       11.9912382997
 Zr         9.2955936354       16.0526939280        6.1822784228
 Zr        49.8354135962       16.0067021861        9.7466597391
 Zr        22.0728172847        0.0294222832        6.1893325049
 Zr        42.4605267049       35.1529180472        9.8006523420
 Zr        29.6226797557       19.0737086186        6.3477684868
 Zr        29.5404978685       19.1588787505        9.8629659232
 Zr        11.0367380347       19.0521837318        9.8275458774
 Zr        11.0424089435       19.1550216005        6.2514948320
 Zr        31.3341594763       16.0768813569        9.9124783265
 Zr        31.3897363520       15.9959685092        6.2233364855
 Zr        18.6008591625       -0.0032372109        9.7638316453
 Zr        18.5062740327       -0.0093818314        6.2134866485
 Zr        12.3003959377       16.3232128251        7.9901920592
 Zr        48.6146998708       18.8329399948        8.0104387332
 Zr        20.3155514604        2.4725779512        7.9909785033
 Zr        40.6415022890       32.6854247858        7.9780687370
 Zr        28.3399849090       16.3257734904        8.0843298312
 Zr        32.6413078196       18.7889803468        8.0545816606
  H        29.3356425861       17.6979800238        1.5191715160
  H        29.9053924129       19.5729773939        3.2597732310
  H        30.3671137729       19.9925924248       12.3895776214
