     569
 i =      103, E =     -4729.5139698984
  C        11.8586536260       14.0533843649        5.7415767280
  C        12.4561099893       12.8903594273        5.0234209661
  C        11.7045749785       12.1718221623        4.0813296406
  C        12.2809103690       11.1095964491        3.3889816981
  C        13.6213225045       10.7393986442        3.6170765422
  C        14.3542571739       11.4424573856        4.5911120004
  C        13.7813913998       12.5074217185        5.2826465383
  C        14.2609329135        9.6488440051        2.8436193101
  C        14.2562031666        9.6567958176        1.4219148706
  C        13.7428618412       10.7588225979        0.6679836094
  C        49.1265322019       21.2334213477        5.8797698395
  C        48.5497413229       22.4012523326        5.1526500969
  C        49.2997712903       23.0685592814        4.1716349254
  C        48.7328298078       24.1076554535        3.4384100267
  C        47.4022892194       24.5092971372        3.6670431578
  C        46.6713218385       23.8604076040        4.6805314658
  C        47.2337667805       22.8155127116        5.4099001224
  C        46.7721196053       25.5870137406        2.8697589402
  C        46.7611313455       25.5573636302        1.4480028476
  C        47.2608486980       24.4421504682        0.7045426777
  C        14.8603394567        8.5705930659        0.7086092431
  C        14.8919032735        8.5969619525        3.5202195167
  C        49.1130078787       21.2034890823       10.1453630709
  C        48.5276267335       22.3647390285       10.8725896403
  C        49.2668413521       23.0255045817       11.8654887696
  C        48.6904553065       24.0600131814       12.5969521629
  C        47.3600206611       24.4567249879       12.3587103661
  C        46.6395934257       23.8117072454       11.3352721841
  C        47.2131867700       22.7758277417       10.6034905622
  C        46.7216126662       25.5317377344       13.1496939760
  C        46.7333471839       25.5281203406       14.5713904286
  C        47.2485760964       24.4288174576       15.3277818502
  C        40.6342242083       17.1139988921       15.3238793340
  C        40.6535569620       17.1536769788       12.5149034280
  C        11.8828311269       14.0863966060       10.2854476449
  C        12.4720357765       12.9104450807       10.9894898833
  C        11.7146666480       12.1776497247       11.9160481887
  C        12.2811984504       11.0951898027       12.5845000743
  C        13.6198401450       10.7210213591       12.3522921510
  C        14.3575774192       11.4360361535       11.3908748636
  C        13.7921839793       12.5171818321       10.7181341181
  C        14.2535384389        9.6244023920       13.1227759107
  C        14.2522926732        9.6444265287       14.5446176962
  C        13.7422740489       10.7532831272       15.2917293603
  C        22.5120640162        3.2451912917        5.7540332481
  C        23.2254924230        4.3525676850        5.0573625906
  C        24.2254467185        4.0775574191        4.1128419961
  C        24.8495547478        5.1205629684        3.4333115248
  C        24.4891038997        6.4606921384        3.6778056328
  C        23.5179888783        6.7271929766        4.6600735184
  C        22.8895337618        5.6862394523        5.3382182292
  C        25.0879152423        7.5709309126        2.9023249646
  C        25.0584461391        7.5632962964        1.4808824688
  C        24.3623169181        6.5589603149        0.7359224804
  C        38.2986012634       31.9278693626        5.8515887136
  C        37.5585077150       30.8379504699        5.1497318707
  C        36.5914925799       31.1427954643        4.1792663488
  C        35.9632347745       30.1236052862        3.4683477381
  C        36.2867429946       28.7727621540        3.7039236630
  C        37.2231434012       28.4752999067        4.7121771549
  C        37.8550011069       29.4934604291        5.4227878516
  C        35.6792784852       27.6834657569        2.9039587573
  C        35.7168925174       27.7008464856        1.4819182347
  C        36.4265092911       28.7043431935        0.7493156540
  C        25.6727809296        8.6375011542        0.7601809644
  C        25.6790162384        8.6494539894        3.5724901306
  C        38.3307187927       31.9613465918       10.1598645464
  C        37.6139500940       30.8884587814       10.9091279403
  C        36.6801505474       31.1984438966       11.9099008098
  C        36.0702210702       30.1816372411       12.6426251743
  C        36.3793271034       28.8283524283       12.3988092608
  C        37.2941319144       28.5282259656       11.3707127391
  C        37.9058033136       29.5415471792       10.6390794850
  C        35.7648911808       27.7298061681       13.1804149840
  C        35.7606426968       27.7246943089       14.6029122845
  C        36.4460229166       28.7165240902       15.3726055943
  C        46.1354982956       26.6208654274       15.2814843765
  C        46.0877491973       26.5801190955       12.4735972442
  C        22.4607518366        3.2568007586       10.2594015623
  C        23.1526013292        4.3658999707       10.9843156314
  C        24.1506410869        4.0812493959       11.9301112012
  C        24.7757250577        5.1120631751       12.6281642601
  C        24.4236764068        6.4582173167       12.4033941801
  C        23.4490857716        6.7359172942       11.4258442014
  C        22.8191271098        5.7055035170       10.7285768217
  C        25.0505615111        7.5587886690       13.1783674655
  C        25.0394635998        7.5564278472       14.6014706933
  C        24.3507720033        6.5571529404       15.3590341127
  C        26.6176046918       17.8477895294        5.7393211307
  C        25.3197169867       17.9000003398        5.0093520639
  C        25.0439270065       18.9122909855        4.0769135931
  C        23.8236262117       18.9358668719        3.4049764077
  C        22.8443656207       17.9508560380        3.6446969505
  C        23.1166629225       16.9598506866        4.6062560358
  C        24.3375170539       16.9312454213        5.2761762346
  C        21.5683021106       17.9381196766        2.8875789128
  C        21.5705473377       17.9181674529        1.4659071887
  C        22.7774272492       17.7916054397        0.7081259911
  C        34.4405136051       17.1887205012        5.9199610782
  C        35.7323641344       17.1407153009        5.1776545573
  C        35.9299356714       16.1805925785        4.1726690635
  C        37.1100996173       16.1670310340        3.4354424189
  C        38.1249515164       17.1115631495        3.6837591664
  C        37.9303338370       18.0512459158        4.7141069270
  C        36.7470056103       18.0710559972        5.4484663697
  C        39.3788117201       17.1180592118        2.8976205361
  C        39.3752521028       17.1335987129        1.4758558535
  C        38.1693468111       17.2629071343        0.7176192387
  C        20.3246168443       17.9377670791        0.7577764536
  C        20.3450462541       17.9384703827        3.5717053692
  C        34.4772110838       17.2404115214       10.1862832715
  C        35.7763456697       17.1705373773       10.9114007034
  C        35.9865968406       16.1881485008       11.8905817349
  C        37.1730257819       16.1668357084       12.6173257439
  C        38.1760532399       17.1274274700       12.3842978319
  C        37.9712499767       18.0859056878       11.3745586503
  C        36.7828441670       18.1123189538       10.6501431323
  C        39.4226776332       17.1415484102       13.1792305497
  C        39.3978419727       17.1465564255       14.6001743584
  C        38.1798894304       17.2674583892       15.3408231798
  C        35.1240542305       26.6457665395       15.3021479059
  C        35.1807939099       26.6580852432       12.4927307558
  C        26.5715896909       17.8270915219       10.3254900806
  C        25.2571581703       17.8731907920       11.0305439711
  C        24.9922010206       18.8801943406       11.9711191220
  C        23.7736612392       18.9065360675       12.6435717223
  C        22.7911837065       17.9265563139       12.3979458886
  C        23.0510102976       16.9439995009       11.4255933059
  C        24.2704595610       16.9148944627       10.7520261539
  C        21.5264438342       17.9100073752       13.1686477009
  C        21.5487090991       17.9012279847       14.5898229051
  C        22.7664648432       17.7829672904       15.3320115676
  C        14.0456252696       17.8299212724       10.2867998765
  C        15.3509319677       17.8897257579       11.0092587144
  C        15.6086528773       18.8973401669       11.9515649378
  C        16.8183197584       18.9204054654       12.6427518859
  C        17.8029568507       17.9386092816       12.4127297620
  C        17.5503337209       16.9554218128       11.4377287958
  C        16.3401174765       16.9279073960       10.7482189301
  C        19.0710030818       17.9217949124       13.1819072403
  C        19.0675394171       17.9196751804       14.6041104062
  C        17.8595321020       17.8235561375       15.3643513153
  C        46.8058057058       17.2184603106       10.1591115954
  C        45.5176172207       17.1563714526       10.9061063907
  C        45.3127390667       16.1760099978       11.8892708015
  C        44.1328089437       16.1575269359       12.6278058449
  C        43.1287416020       17.1198882036       12.4052422072
  C        43.3309312881       18.0799740144       11.3953428517
  C        44.5112483277       18.1020490898       10.6573408112
  C        41.8767684757       17.1308295916       13.1945876147
  C        41.8816597674       17.1232284809       14.6163553319
  C        43.0903916350       17.2086324170       15.3763298809
  C        20.3132807916       17.9289203692       15.3132786405
  C        20.2954659563       17.9000057448       12.5006335413
  C        46.7853374997       17.2294535361        5.8910570659
  C        45.4815587988       17.1192263669        5.1792692806
  C        45.2635172989       16.1167963296        4.2220376530
  C        44.0754050591       16.0867209563        3.4964807231
  C        43.0767586329       17.0561025048        3.7117035414
  C        43.2844010078       18.0271060064        4.7090228503
  C        44.4735754686       18.0636094502        5.4296372278
  C        41.8322457436       17.0791924371        2.9132477920
  C        41.8590550944       17.0952407964        1.4925470465
  C        43.0796886010       17.1929361245        0.7529736170
  C        46.1532773973       26.6373189766        0.7262381084
  C        46.1622925210       26.6562051865        3.5358745315
  C        14.0438014605       17.8310171859        5.7079254554
  C        15.3634633940       17.9046770390        5.0143029122
  C        15.6357524101       18.9226850429        4.0883031290
  C        16.8633419403       18.9609489244        3.4309201103
  C        17.8458658034       17.9802051646        3.6739976677
  C        17.5800570532       16.9901000484        4.6373016123
  C        16.3545104280       16.9515716249        5.2983166657
  C        19.1126952801       17.9578909829        2.9044105140
  C        19.0894014887       17.9375919475        1.4827013342
  C        17.8700445836       17.8313406820        0.7407526392
  C        28.8071921837       14.0905955379       10.3958420112
  C        28.1901855400       12.9205219485       11.0831888981
  C        28.8994345198       12.2001162177       12.0557459562
  C        28.2963067982       11.1279251337       12.7079746557
  C        26.9694902947       10.7530650203       12.4133826927
  C        26.2830868499       11.4542905728       11.4056579248
  C        26.8838521181       12.5264016420       10.7512082567
  C        26.2955894370        9.6766568931       13.1745143527
  C        26.2729334339        9.7099257201       14.5956149972
  C        26.7611219064       10.8305570174       15.3399746896
  C        32.1810027801       21.2377074396       10.1443110382
  C        32.7769060796       22.4046425287       10.8627904432
  C        32.0264228539       23.0878435944       11.8322985124
  C        32.5959030891       24.1278224861       12.5608695011
  C        33.9327742215       24.5135110755       12.3426119625
  C        34.6663410529       23.8491476409       11.3414121187
  C        34.0987635381       22.8038625260       10.6142654639
  C        34.5589602045       25.5887352843       13.1470060415
  C        34.5388982160       25.5615378725       14.5690228164
  C        34.0240964779       24.4466263119       15.3031231280
  C        25.6685480142        8.6297246189       15.3151482642
  C        25.6663779799        8.6206431678       12.5018230038
  C        32.0978679280       21.1642452266        5.8373085539
  C        32.6604689450       22.3317349623        5.0979080576
  C        31.9214933169       23.0047294806        4.1124941744
  C        32.4933974782       24.0533363826        3.3943756100
  C        33.8192171914       24.4614761563        3.6426073210
  C        34.5388239318       23.8054704957        4.6598009905
  C        33.9719676295       22.7533184200        5.3728815301
  C        34.4593932227       25.5511465732        2.8684082664
  C        34.4855899473       25.5432603844        1.4462789822
  C        33.9973404355       24.4384995401        0.6797521613
  C        40.6223574911       17.1035017196        0.7682435496
  C        40.6015655331       17.1080693388        3.5777556899
  C        28.7196171591       14.0960713043        5.8167288052
  C        28.1012768489       12.9505070817        5.0868358285
  C        28.8268379110       12.2704110348        4.0961533423
  C        28.2454762539       11.2139878546        3.4001258275
  C        26.9216939640       10.8099314670        3.6672768957
  C        26.2137943847       11.4775407820        4.6848185981
  C        26.7935640670       12.5351832591        5.3836753479
  C        26.2814679767        9.7177476111        2.8949754757
  C        26.2677580221        9.7307606823        1.4725257453
  C        26.7563685841       10.8420694386        0.7161251394
  C        18.1355583516        3.1809993782       10.3172428801
  C        17.4063294113        4.2782718252       11.0159254120
  C        16.3902248311        3.9999601946       11.9430209434
  C        15.7425167454        5.0399779159       12.6064793412
  C        16.0948577581        6.3836346394       12.3671417272
  C        17.0847632360        6.6531160529       11.4039281961
  C        17.7338701173        5.6157403457       10.7389302646
  C        15.4703943429        7.4913109522       13.1301305633
  C        15.4857154907        7.4906781013       14.5518363455
  C        16.1874883644        6.4971835660       15.3049614502
  C        42.9458634711       31.8596328076       10.0728500669
  C        43.6462818230       30.7719066420       10.8167355175
  C        44.5918151232       31.0932417929       11.8027928471
  C        45.1975588381       30.0877043145       12.5504450862
  C        44.8711216969       28.7346391655       12.3356183830
  C        43.9453345491       28.4202653519       11.3223754781
  C        43.3365239811       29.4254107575       10.5743301002
  C        45.4886692593       27.6553393057       13.1388343127
  C        45.4929072023       27.6810383456       14.5605294855
  C        44.8060101828       28.6892205466       15.3071422853
  C        14.8565341306        8.5630554230       15.2641784295
  C        14.8749204552        8.5629318216       12.4515146779
  C        42.9464562968       31.9617564526        5.8089554621
  C        43.6917478032       30.8856071419        5.0955210448
  C        44.6563375063       31.1915613281        4.1232364283
  C        45.2778927518       30.1719993446        3.4054960255
  C        44.9541128645       28.8216754454        3.6430777850
  C        44.0206437697       28.5239576241        4.6538577133
  C        43.3923757343       29.5407011686        5.3660635107
  C        45.5631189098       27.7242672793        2.8578148629
  C        45.5334570788       27.7175708856        1.4365150561
  C        44.8273057711       28.7078983652        0.6835330884
  C        35.0995251367       26.6352982081        0.7475587096
  C        35.0685771437       26.6070994759        3.5585899230
  C        18.1487875677        3.2470079427        5.7065912430
  C        17.4302989738        4.3438675615        4.9971596524
  C        16.4148083601        4.0526543582        4.0738948386
  C        15.7665484179        5.0833218813        3.3985050177
  C        16.1215463945        6.4285006262        3.6209696038
  C        17.1133670600        6.7118217827        4.5777672430
  C        17.7610118003        5.6828787401        5.2575263931
  C        15.4909234856        7.5241837279        2.8485833889
  C        15.4967956662        7.5076037183        1.4274529907
  C        16.1937464132        6.5060184560        0.6807741169
  H        10.6725754601       12.4662343598        3.9040051854
  H        11.6946885941       10.5513906423        2.6621764085
  H        15.3910959451       11.1674099779        4.7732693152
  H        14.3506526567       13.0701854830        6.0185873091
  H        13.3756689017       11.6308823361        1.2012670280
  H        50.3224686180       22.7484985965        3.9869023111
  H        49.3192572407       24.6229108114        2.6807839973
  H        45.6418025235       24.1611187611        4.8636446390
  H        46.6626918829       22.2902210274        6.1719147421
  H        47.6291031908       23.5756609866        1.2462422831
  H        14.8722800522        8.5881316540        4.6085263975
  H        50.2868984792       22.7026922563       12.0603811237
  H        49.2687842891       24.5755121518       13.3604714559
  H        45.6101369706       24.1088159939       11.1462915744
  H        46.6523043963       22.2535647338        9.8320389940
  H        47.6070661902       23.5515641578       14.7969091363
  H        40.6597366665       17.1256395548       11.4269833990
  H        48.6870659052       14.0946726046        7.8000357208
  H        10.6813300760       12.4670151025       12.0937656777
  H        11.6894708691       10.5250875054       13.2974840900
  H        15.3928178930       11.1577086403       11.2045235432
  H        14.3643455074       13.0860945077        9.9891126232
  H        13.3752481261       11.6218273755       14.7531232663
  H        47.9301602737       14.2176577758        9.7106927199
  H        47.7799837774       14.3729712891        6.4951638131
  H        49.0831082935       18.5522612051       10.8672333685
  H        10.4159280250       14.1342626836        7.9986101860
  H        24.4910820231        3.0402933815        3.9212215704
  H        25.6249002988        4.9072675688        2.7006675976
  H        23.2325642820        7.7588098813        4.8552266513
  H        22.1173408952        5.8826668649        6.0779407732
  H        23.8059191128        5.7992194104        1.2770157703
  H        36.3569737269       32.1864632716        3.9834241976
  H        35.2144185148       30.3656050926        2.7172945558
  H        37.4818456211       27.4357589868        4.9028819832
  H        38.6034370633       29.2696916195        6.1793749899
  H        36.9870004879       29.4547235504        1.2991695221
  H        25.7174600930        8.6309072307        4.6601788705
  H        36.4516981381       32.2428146225       12.1102979620
  H        35.3393936798       30.4288789680       13.4094623525
  H        37.5466947057       27.4879911262       11.1760296031
  H        38.6328660753       29.3136592493        9.8633918291
  H        37.0225463745       29.4759634991       14.8521305193
  H        46.1091153621       26.5874555560       11.3855601850
  H        44.6684492802       35.1163352567        7.8139458584
  H        24.4277858608        3.0432767003       12.0999180629
  H        25.5534089217        4.8831816016       13.3536992662
  H        23.1654581307        7.7702724278       11.2423398684
  H        22.0510144204        5.9184447240        9.9886672416
  H        23.7847599291        5.7967495760       14.8288123196
  H        44.9544457656       34.3909837677        9.6955761491
  H        44.9021782346       34.2070178176        6.4905907875
  H        40.6667119952       33.2094439036       10.8532872083
  H        23.1503196174        1.9584081976        8.0058287411
  H        25.7888357723       19.6838842729        3.8974690467
  H        23.6127047535       19.7259584163        2.6875247585
  H        22.3721833451       16.1896288374        4.7970952018
  H        24.5596131642       16.1541854542        6.0038219139
  H        23.7178099515       17.6679393574        1.2374704670
  H        35.1420862699       15.4570211926        3.9773576312
  H        37.2616121027       15.4152984545        2.6639435461
  H        38.7064130274       18.7882824196        4.9098540699
  H        36.5808244806       18.8109177929        6.2280366951
  H        37.2297151487       17.3904743388        1.2474345758
  H        20.3520434201       17.9749738490        4.6596874997
  H        35.2011137808       15.4601827004       12.0790727511
  H        37.3359794270       15.4027375885       13.3741808140
  H        38.7400451770       18.8338811983       11.1921638631
  H        36.6026530210       18.8692021607        9.8905232616
  H        37.2483417636       17.3973864622       14.7974033738
  H        35.1634945355       26.6833306921       11.4047964193
  H        28.5098521677       21.0828219144        8.0076943266
  H        25.7533020122       19.6351506672       12.1554749085
  H        23.5671793496       19.6911440034       13.3682827153
  H        22.3008825866       16.1800437988       11.2316009860
  H        24.4878142880       16.1440059052       10.0166002407
  H        23.6981085401       17.6530927151       14.7894469155
  H        29.0221979102       21.7133383923        9.7499480851
  H        29.1163010906       21.7695663817        6.6199397413
  H        32.0706454234       18.5299269301       11.0011509367
  H        27.4049357776       19.0860016766        8.0833268762
  H        14.8503416206       19.6571236532       12.1270585750
  H        17.0154945512       19.7072765887       13.3676477038
  H        18.3009248383       16.1897842852       11.2523912997
  H        16.1318949108       16.1558942227       10.0112817380
  H        16.9172722101       17.7103802983       14.8360976392
  H        46.0951267245       15.4420988280       12.0674652315
  H        43.9735574958       15.3892808451       13.3812539744
  H        42.5631951043       18.8306613302       11.2197428129
  H        44.6840662822       18.8572227190        9.8941660767
  H        44.0331589179       17.3194706184       14.8482589244
  H        20.2901706600       17.9287762058       11.4124830503
  H        46.0411444517       15.3767311697        4.0475408340
  H        43.9084579110       15.3096960456        2.7536954207
  H        42.5172668920       18.7791408626        4.8812343263
  H        44.6563064738       18.8324870679        6.1762617629
  H        44.0143260047       17.2904139443        1.2976036625
  H        46.1991113595       26.6827440830        4.6233207812
  H        52.7408785557       21.0624963159        8.1946356271
  H        14.8754872806       19.6777335333        3.9007474922
  H        17.0738989926       19.7536467471        2.7162040054
  H        18.3298910369       16.2260143319        4.8318091759
  H        16.1337182209       16.1748102283        6.0264207989
  H        16.9358090135       17.7241359759        1.2837383566
  H        52.3215350507       21.6730772263        6.2947327475
  H        52.0126589046       21.7016849317        9.4955431019
  H        49.0665437574       18.6074954813        5.2044076723
  H        13.2470154211       19.0167444772        7.9767658684
  H        29.9196071419       12.4970992928       12.2884649703
  H        28.8481359612       10.5685934514       13.4602790359
  H        25.2580675927       11.1750826748       11.1705516578
  H        26.3504845045       13.0892414837        9.9892010612
  H        27.1149139366       11.7031362838       14.7992669175
  H        31.0001445903       22.7770870293       12.0117676806
  H        32.0077760765       24.6551524642       13.3087574988
  H        35.7013650305       24.1358945270       11.1667302751
  H        34.6722968706       22.2656800822        9.8630634648
  H        33.6751038625       23.5763389804       14.7546000216
  H        25.7031685718        8.5968819182       11.4141018240
  H        30.8980300586       22.6943946601        3.9159342419
  H        31.9126933979       24.5733617288        2.6355979665
  H        35.5645706838       24.1082717094        4.8598085193
  H        34.5351140651       22.2269806053        6.1397563693
  H        33.6280417880       23.5610572724        1.2029309833
  H        40.5939949070       17.0688074448        4.6653449994
  H        32.5061958211       14.1460708604        8.2495174306
  H        29.8462385312       12.5864350337        3.8870401508
  H        28.8172503769       10.6844516452        2.6411945184
  H        25.1897866016       11.1787780452        4.8995265364
  H        26.2419079515       13.0646696572        6.1569023369
  H        27.1047130297       11.7239285258        1.2459830243
  H        33.3054575114       14.2134528727        6.4586823014
  H        33.4101771260       14.3996888857        9.5985096534
  H        32.1316817427       18.4582802831        5.1652644510
  H        30.1825745800       14.1553567476        8.0760158142
  H        16.1178761858        2.9634766772       12.1291109243
  H        14.9527783558        4.8206958722       13.3218504246
  H        17.3676864193        7.6859385596       11.2112672405
  H        18.5164054013        5.8183157304       10.0115938429
  H        16.7542290902        5.7400086639       14.7714155038
  H        44.8281087067       32.1403259078       11.9769638779
  H        45.9374554862       30.3414957630       13.3063483102
  H        43.6826875453       27.3781851179       11.1522406298
  H        42.6000267131       29.1900633134        9.8095536291
  H        44.2308191333       29.4370996331       14.7688215358
  H        14.8511730945        8.5460971349       11.3632954341
  H        44.8999037974       32.2342483097        3.9318351759
  H        46.0248076510       30.4132863327        2.6522854221
  H        43.7637091280       27.4842158014        4.8453974260
  H        42.6459433634       29.3178857462        6.1245678668
  H        44.2689788716       29.4709337142        1.2180922498
  H        35.0224918431       26.6161542667        4.6460292635
  H        36.6054539751       35.1340196985        8.1805994159
  H        16.1434928047        3.0130976635        3.9044248609
  H        14.9740136281        4.8565666472        2.6886255120
  H        17.3973029759        7.7472350514        4.7542716484
  H        18.5442812477        5.8932644858        5.9818879443
  H        16.7653879016        5.7559453036        1.2192305698
  H        36.2794915782       34.4818672955        6.2731634654
  H        36.3819525344       34.2086210696        9.4992597644
  H        40.5796966304       33.2022960114        5.1537358198
  H        17.4711513613        1.9473550954        7.9741109963
  H        29.2444703285       19.3735798790       12.5933369559
  H        28.5411447667       18.7528768257        4.0046457203
  H        31.7732131701       15.7990563630        3.5544750675
  H        31.3981962610       15.5910692175       12.5160782382
  H        27.9472218108       17.8681354805       14.1617559555
  H        29.3927277037       15.4628198324       14.4150210571
  H        32.6583484867       17.0203078236        1.2981978201
  H        18.8534208426        0.8689759319       12.3351894604
  H        40.5282714158       35.2287458293        3.9519869662
  H        42.3249604445       34.4197235420        3.5899606048
  H        22.0874526189        0.6921795786       12.3514852301
  H        11.5968758582       18.7127589698       12.3823995144
  H        52.2646241714       18.4308432796        3.6773165863
  H        49.2554410426       16.4767351734        3.5843001607
  H        10.1494119751       15.7981660253       12.2932294416
  H        50.8495839888       17.6923141332        3.9542913748
  H        10.0456436497       17.3943578781       12.0520476736
  H        20.2147396064        0.0021608183       12.0419313063
  H        39.1840620422       36.1245490754        3.6865218070
 Ni        30.5227666370       17.5155270222        2.6568526530
 Ni        31.0311860752       16.3004874340       -0.1626071180
 Ni        29.4663634024       17.9398690408        0.1702039158
 Ni        30.0551425218       17.3064383878       13.0779130993
  O        10.6499795018       14.3651354816        5.4858118910
  O        12.6131761707       14.6575463860        6.5838553301
  O        49.1480201557       16.8459529322        7.9897207900
  O        50.3501243501       20.9362582716        5.6482740550
  O        48.3484819662       20.5933512935        6.6659630823
  O        11.0513511636       17.0540526467        6.5005954798
  O        50.3209234395       20.8817099331       10.4068191891
  O        48.3467325267       20.5867629434        9.3271073638
  O        49.5436241288       18.2485174176       10.0683086129
  O        12.3588046909       18.6245380471        7.9996460161
  O        48.6933116888       14.1484750437        6.7513284306
  O         8.2099207581       14.2102314072        9.3224642358
  O        10.7353618762       14.5067526025       10.6643430757
  O        12.5717829920       14.5828315567        9.3284923302
  O        22.8446332396        2.0439759780        5.4872423547
  O        21.6049008397        3.5919194754        6.5905687602
  O        42.0581507775       34.1374672819        7.9789399379
  O        37.9813738353       33.1364207364        5.5721331575
  O        39.2173440381       31.5751309676        6.6658427593
  O        20.3084720887        1.0396429561        6.5022135967
  O        38.0244272048       33.1852090856       10.4155821950
  O        39.2185529874       31.5831327971        9.3272302621
  O        40.6522431265       33.7693080490       10.0601101810
  O        18.2557254694        1.3760403642        7.9967937307
  O        44.6221853915       35.1005844223        6.7587771708
  O        24.2053952423        0.0000213138        9.3207419235
  O        22.7531165825        2.0582263688       10.5842699899
  O        21.6247463410        3.5963736336        9.3435207814
  O        27.5456259919       18.6907995945        5.4077061970
  O        26.7292991245       16.9937534638        6.6666788318
  O        30.6707093990       19.4130208486        8.0817412518
  O        33.5872370086       16.2732414713        5.6699331941
  O        34.2733396194       18.1664338142        6.7366580987
  O        29.5691619282       17.0664933757        6.5782962918
  O        33.6190977205       16.3247864400       10.4066752506
  O        34.3071658197       18.2434918925        9.4064018731
  O        31.6581090808       18.3091441350       10.1480847929
  O        30.2924664295       15.1197274629        8.0846369103
  O        28.5545408642       21.0302092308        6.9109045196
  O        28.5158179653       20.9563985001        9.4074418100
  O        27.4578777473       18.6792794650       10.6602166984
  O        26.6941615750       16.9293352157        9.4133705800
  O        13.1480268255       18.6933272332       10.5870157042
  O        13.9189530329       16.9161128220        9.4045560222
  O        50.5958980691       19.3503219588        8.0204635918
  O        47.6842841037       16.3266112766       10.4169266890
  O        46.9518640609       18.1756671030        9.3247736769
  O        11.0694832885       17.0156418972        9.4896844028
  O        47.6770081597       16.3352606582        5.6535900106
  O        46.9274310367       18.2355710240        6.6645831754
  O        49.5685476626       18.3177978598        5.9822055581
  O        10.3187379202       15.1001371711        7.9969923601
  O        52.6707021540       21.0279197925        9.2418311855
  O        12.1468073122       20.8912160028        6.6731772250
  O        13.1073301809       18.6140014406        5.3256138363
  O        13.9567328002       16.9870486687        6.6650205281
  O        29.9903289547       14.4405617901       10.7315756612
  O        28.0869386847       14.6541846461        9.4963397093
  O        32.0766970458       16.8619802393        8.0758464633
  O        30.9650006332       20.9523667312       10.4083977617
  O        32.9463730923       20.5988543586        9.3364312065
  O        29.5654627407       17.0753536333        9.5730028920
  O        30.8798309994       20.8114552277        5.5744095964
  O        32.8673226668       20.5857580962        6.6653777389
  O        31.6734901872       18.2527546675        5.9968204501
  O        28.2865593438       18.6788318758        8.0803586370
  O        32.4922058480       14.2126587023        9.3276658563
  O        32.4048688160       14.2143464964        6.8242515454
  O        29.9041913934       14.4369902086        5.4969331490
  O        28.0052343896       14.6496550748        6.7356248459
  O        17.8891956661        1.9666113875       10.6627861998
  O        18.9561786652        3.5271718289        9.4079759959
  O        39.1686009805       34.1386861509        7.9971180476
  O        43.2802101906       33.0589827239       10.3316971709
  O        42.0344226757       31.5064625195        9.2416100084
  O        20.3177144471        1.0367752477        9.4802265480
  O        43.2760846513       33.1826544522        5.5749146226
  O        42.0052389678       31.5841282356        6.5829784791
  O        40.5789370849       33.7749461191        5.9358757503
  O        22.3674776182        1.3847640602        7.9980279553
  O        36.6727917657       35.0997049706        9.2333014690
  O        16.4457137170        0.0641733756        6.6682335698
  O        17.9364856280        2.0433682607        5.3264128539
  O        18.9189785617        3.5931627258        6.6660009395
  O        29.5270500438       18.9091388999        3.9233253585
  O        29.8636785938       18.9049593079       12.0002094352
  O        31.2957798919       16.4147374363        4.1437779715
  O        31.3814375217       16.4166863279       11.9913376047
  O        31.9061483244       16.4146213942        1.4385338895
  O        30.2856081099       15.8095390943       14.2257628800
  O        28.8553472196       18.1708564950       14.3342693681
  O        39.4568914401       35.2437711460        4.0019487558
  O        19.1412158073        0.0044335803       11.9905351707
  O        41.9695083709       35.1726745847        4.0872044355
  O        21.6911062127       -0.0693332193       11.8958722440
  O        51.3649020182       18.6142589463        4.0054129148
  O        10.7510810575       18.7472160351       11.9049204170
  O        50.0798853546       16.4128557953        4.0916250142
  O         9.5239048040       16.4831277075       11.9912460279
 Zr         9.2962787665       16.0526290972        6.1823085702
 Zr        49.8357837034       16.0065308626        9.7464866543
 Zr        22.0736524451        0.0306518413        6.1888272603
 Zr        42.4613103246       35.1541497525        9.8011140407
 Zr        29.6443627641       19.0956395492        6.3995955200
 Zr        29.5794222826       19.1589673717        9.9133586302
 Zr        11.0371474009       19.0520282086        9.8275756509
 Zr        11.0429681313       19.1549412767        6.2512117628
 Zr        31.3457608883       16.0834994043        9.8794263462
 Zr        31.3769969807       15.9934143160        6.2551035117
 Zr        18.6015335458       -0.0010612686        9.7633157189
 Zr        18.5071076508       -0.0073099148        6.2136832087
 Zr        12.3008183403       16.3232793331        7.9902567382
 Zr        48.6156922061       18.8329050157        8.0102398355
 Zr        20.3160112160        2.4742637874        7.9908934736
 Zr        40.6437913180       32.6874733201        7.9780486033
 Zr        28.3428204921       16.3304622372        8.0947323417
 Zr        32.6554169720       18.8091856933        8.0718241540
  H        29.3773949306       17.0756699070        1.4663201839
  H        29.6608266365       19.7412419157        3.4329602318
  H        30.3504425714       18.5368145017        1.3818446989
