     574
 i =      445, E =     -4778.8919566324
  C        11.8588838066       14.0535215316        5.7414961670
  C        12.4563794744       12.8906555454        5.0231796797
  C        11.7044746097       12.1712933265        4.0820065720
  C        12.2808581737       11.1090745531        3.3897005975
  C        13.6216300304       10.7397182664        3.6170010778
  C        14.3550797585       11.4438065075        4.5898705848
  C        13.7821801348       12.5088037130        5.2813403879
  C        14.2611006361        9.6489878621        2.8436332952
  C        14.2561930564        9.6567692320        1.4219386954
  C        13.7429228694       10.7588553496        0.6680565866
  C        49.1270436322       21.2331066153        5.8796487687
  C        48.5502772934       22.4011776694        5.1525616971
  C        49.3002319431       23.0684324701        4.1714921308
  C        48.7332818580       24.1076012285        3.4383081865
  C        47.4028125921       24.5093393589        3.6670930143
  C        46.6719682738       23.8605769510        4.6807478778
  C        47.2344337976       22.8156435878        5.4100556878
  C        46.7724647175       25.5870101158        2.8698578215
  C        46.7611297792       25.5572542352        1.4481023277
  C        47.2609799506       24.4421234170        0.7046091257
  C        14.8601377623        8.5704423859        0.7086715297
  C        14.8920336374        8.5971470635        3.5202896592
  C        49.1133035352       21.2033659051       10.1453338730
  C        48.5278592403       22.3647842686       10.8726003997
  C        49.2669574508       23.0252908914       11.8657243721
  C        48.6906328315       24.0598692469       12.5971952717
  C        47.3603291871       24.4568345432       12.3587375514
  C        46.6400598280       23.8121559601       11.3349698334
  C        47.2136202019       22.7762335473       10.6032024334
  C        46.7217897498       25.5317797604       13.1497459632
  C        46.7332570677       25.5280227158       14.5714572769
  C        47.2486642981       24.4287982937       15.3278491838
  C        40.6336498259       17.1559084050       15.3226116928
  C        40.6565307139       17.1742581523       12.5133412228
  C        11.8831714449       14.0865650073       10.2855629111
  C        12.4725649473       12.9109192687       10.9898911089
  C        11.7148705462       12.1773055602       11.9155416845
  C        12.2815111880       11.0948699175       12.5839286595
  C        13.6205279289       10.7215751602       12.3525277750
  C        14.3587449657       11.4376473562       11.3923011727
  C        13.7932696557       12.5187940027       10.7196089475
  C        14.2540321943        9.6247239334       13.1228918630
  C        14.2524845189        9.6445096365       14.5447296172
  C        13.7424264858       10.7533663924       15.2918058096
  C        22.5137620197        3.2451558297        5.7532775583
  C        23.2316771738        4.3493644324        5.0553986431
  C        24.2291320893        4.0673748665        4.1100183863
  C        24.8595761166        5.1053498889        3.4286627735
  C        24.5088888455        6.4483458990        3.6718569703
  C        23.5399704522        6.7217842386        4.6546821885
  C        22.9048158945        5.6856228477        5.3346262765
  C        25.1170228103        7.5533470777        2.8952109399
  C        25.0882494792        7.5455781781        1.4736174356
  C        24.3837256228        6.5469129443        0.7288875737
  C        38.2987569121       31.9282905306        5.8519725520
  C        37.5579019805       30.8392261832        5.1497444351
  C        36.5917547493       31.1464553897        4.1793105768
  C        35.9619520257       30.1287784647        3.4678652922
  C        36.2830685605       28.7776369281        3.7038656626
  C        37.2188995223       28.4776342913        4.7117360181
  C        37.8526410354       29.4944495443        5.4225226963
  C        35.6724293525       27.6902100045        2.9043187720
  C        35.7114756948       27.7066382453        1.4825866516
  C        36.4268627660       28.7061920358        0.7502877331
  C        25.7109442621        8.6147909975        0.7520306216
  C        25.7162695880        8.6282738141        3.5641495077
  C        38.3309916157       31.9620236246       10.1597691504
  C        37.6136801632       30.8898988293       10.9099369344
  C        36.6817081495       31.2019787525       11.9116648298
  C        36.0704469760       30.1865773141       12.6451006773
  C        36.3763552639       28.8328515575       12.4003779269
  C        37.2896703192       28.5305084690       11.3717327747
  C        37.9028725172       29.5425986449       10.6396036520
  C        35.7586893259       27.7361067233       13.1818224119
  C        35.7552226849       27.7304198133       14.6042793890
  C        36.4465499315       28.7183551197       15.3736611809
  C        46.1352320166       26.6206590837       15.2815958760
  C        46.0879916183       26.5802446868       12.4737028279
  C        22.4613052964        3.2559644649       10.2581007734
  C        23.1558132875        4.3635175953       10.9813704705
  C        24.1568597564        4.0758587626       11.9229663999
  C        24.7858698403        5.1048319352       12.6195499507
  C        24.4343104731        6.4514420888       12.3973844819
  C        23.4563073792        6.7322141457       11.4243234966
  C        22.8225639528        5.7035433115       10.7281555893
  C        25.0669877933        7.5486536844       13.1711510345
  C        25.0629877042        7.5424007051       14.5940284552
  C        24.3698589580        6.5464213533       15.3520420871
  C        26.6268489674       17.8623909275        5.7819316449
  C        25.3208220532       17.9046357895        5.0548296296
  C        25.0646693953       18.8944157567        4.0926125127
  C        23.8511679300       18.9137458065        3.4073546295
  C        22.8568985027       17.9468675384        3.6614242309
  C        23.1103662238       16.9790045562        4.6518804748
  C        24.3255763365       16.9538583213        5.3347223147
  C        21.5825352438       17.9325727308        2.8984273919
  C        21.5813713613       17.9091771516        1.4756437501
  C        22.7857424485       17.7796364934        0.7139469955
  C        34.4347382760       17.2001495101        5.9201567876
  C        35.7236766573       17.1559584645        5.1701510075
  C        35.9057957306       16.2217337109        4.1388216050
  C        37.0884267640       16.2101898698        3.4043425614
  C        38.1171914484       17.1329796540        3.6782315968
  C        37.9338573957       18.0488434452        4.7321227718
  C        36.7504561680       18.0648960828        5.4660713082
  C        39.3726612729       17.1451213669        2.8946439686
  C        39.3720701978       17.1748711041        1.4730454239
  C        38.1684039353       17.3123649999        0.7121920249
  C        20.3338627706       17.9307728122        0.7684456447
  C        20.3580113050       17.9380276573        3.5818256421
  C        34.4728870580       17.2435216131       10.1860803093
  C        35.7770941141       17.1679921968       10.9061080506
  C        35.9891251731       16.1953837380       11.8945676971
  C        37.1755312995       16.1831251241       12.6226072809
  C        38.1786003589       17.1416046792       12.3797892317
  C        37.9738401640       18.0870494736       11.3577003840
  C        36.7848820248       18.1055292192       10.6339761381
  C        39.4245835504       17.1664634771       13.1758657189
  C        39.3986539171       17.1841839861       14.5965380074
  C        38.1806296336       17.3130732865       15.3355565083
  C        35.1126108832       26.6550106903       15.3034999410
  C        35.1700914807       26.6671931064       12.4939319388
  C        26.5692399047       17.8281867211       10.3239695262
  C        25.2530942600       17.8767499663       11.0261804846
  C        24.9875623300       18.8820852443       11.9682224378
  C        23.7710112789       18.9051292133       12.6442019708
  C        22.7896076616       17.9237532039       12.4002806980
  C        23.0481429262       16.9446442632       11.4239615435
  C        24.2661363160       16.9185988869       10.7474206773
  C        21.5272473555       17.9038450271       13.1754261187
  C        21.5529456713       17.8938505898       14.5970594866
  C        22.7718697767       17.7730459013       15.3373573078
  C        14.0467732480       17.8287894682       10.2893027937
  C        15.3503828521       17.8858142021       11.0153211027
  C        15.6060043949       18.8884501545       11.9639380046
  C        16.8145145704       18.9094418311       12.6575520224
  C        17.8019169109       17.9306148414       12.4250537507
  C        17.5508945147       16.9521612895       11.4444494726
  C        16.3419190626       16.9265654837       10.7522735477
  C        19.0711893449       17.9138951806       13.1936392415
  C        19.0714344249       17.9122973700       14.6161716166
  C        17.8651492087       17.8157959401       15.3787704547
  C        46.8071797003       17.2203348137       10.1598232820
  C        45.5196280569       17.1643311118       10.9090771462
  C        45.3143385398       16.1921747709       11.8999969770
  C        44.1346113270       16.1812997454       12.6392085156
  C        43.1316254443       17.1425966695       12.4079931042
  C        43.3345340996       18.0947933128       11.3911156517
  C        44.5149217479       18.1097811176       10.6533513531
  C        41.8786254002       17.1600879803       13.1952813033
  C        41.8819057183       17.1633190083       14.6169501866
  C        43.0895444177       17.2540575181       15.3781500942
  C        20.3189915704       17.9215914212       15.3232793666
  C        20.2946376267       17.8932234013       12.5101198786
  C        46.7849549951       17.2305872712        5.8904345453
  C        45.4796729473       17.1246657946        5.1781653398
  C        45.2598697510       16.1304612193        4.2129195682
  C        44.0707714935       16.1071935177        3.4880918428
  C        43.0722425612       17.0747873605        3.7121600342
  C        43.2813949594       18.0369126418        4.7176937621
  C        44.4717714297       18.0669953228        5.4370065810
  C        41.8273431751       17.1057942337        2.9132249088
  C        41.8557634162       17.1345719373        1.4926277213
  C        43.0770306045       17.2377416538        0.7548041655
  C        46.1530567045       26.6371120075        0.7263637077
  C        46.1627214366       26.6562373372        3.5359957557
  C        14.0469727917       17.8323389559        5.7088332656
  C        15.3690097483       17.9078441462        5.0199517127
  C        15.6435091999       18.9232623172        4.0914623629
  C        16.8733265548       18.9610442599        3.4378889894
  C        17.8572651716       17.9825341968        3.6860487285
  C        17.5897556564       16.9965905571        4.6533865849
  C        16.3620555892       16.9583334019        5.3107095667
  C        19.1246169707       17.9567745957        2.9162679198
  C        19.0993685092       17.9327484540        1.4946213138
  C        17.8787756139       17.8249731556        0.7549535398
  C        28.8109292122       14.0899410038       10.3909411224
  C        28.2008574339       12.9127907296       11.0736715257
  C        28.9265448068       12.1667435853       12.0141518523
  C        28.3272306752       11.0926892798       12.6670546152
  C        26.9884709136       10.7397760455       12.4025284476
  C        26.2851335387       11.4642631394       11.4234989328
  C        26.8818647536       12.5392173985       10.7696990287
  C        26.3199594590        9.6608945154       13.1658211296
  C        26.3111157895        9.6873805902       14.5870637560
  C        26.8155693959       10.8009082925       15.3312413136
  C        32.1769300831       21.2435209466       10.1473679277
  C        32.7681260126       22.4140551431       10.8645164285
  C        32.0124022624       23.1010328694       11.8272626224
  C        32.5791218263       24.1427763899       12.5557489298
  C        33.9179201395       24.5256113726       12.3437777250
  C        34.6563578187       23.8575924381       11.3487281280
  C        34.0915420949       22.8110364125       10.6214497534
  C        34.5433133036       25.6009019170       13.1482418931
  C        34.5209032705       25.5747750259       14.5699789927
  C        33.9968989417       24.4643728940       15.3044954277
  C        25.7025926713        8.6095248490       15.3071430519
  C        25.6811467388        8.6107750648       12.4937388565
  C        32.0793245936       21.2011012524        5.8769106032
  C        32.6485049229       22.3616002816        5.1279407557
  C        31.9090842071       23.0203367061        4.1333484234
  C        32.4804090346       24.0615583978        3.4032597576
  C        33.8051967609       24.4748640012        3.6485599209
  C        34.5265168271       23.8287787848        4.6710627311
  C        33.9604033370       22.7840870019        5.3962691200
  C        34.4441436983       25.5625313074        2.8704291826
  C        34.4688298039       25.5558204610        1.4484229389
  C        33.9711028735       24.4559755457        0.6809814060
  C        40.6198731898       17.1460682772        0.7669089645
  C        40.5954103138       17.1264374665        3.5758993655
  C        28.7478939867       14.0722320316        5.8121475064
  C        28.1429835613       12.9254899674        5.0731643208
  C        28.8812476832       12.2268547429        4.1055214332
  C        28.3016887126       11.1688473481        3.4091772836
  C        26.9690062276       10.7824708522        3.6560231505
  C        26.2480949613       11.4685220211        4.6513690992
  C        26.8251310612       12.5275168145        5.3486955433
  C        26.3278243171        9.6902598862        2.8849806275
  C        26.3162585212        9.7028894451        1.4630844371
  C        26.8155493240       10.8102320820        0.7074267332
  C        18.1355215171        3.1812126567       10.3171733140
  C        17.4063532175        4.2783717909       11.0157945272
  C        16.3903766265        4.0000815811       11.9430816552
  C        15.7427215518        5.0400952418       12.6065534676
  C        16.0949162116        6.3838005932       12.3671028380
  C        17.0846445029        6.6532625448       11.4036732524
  C        17.7336820511        5.6158897786       10.7386190846
  C        15.4705240528        7.4914487345       13.1301597335
  C        15.4855288851        7.4905527409       14.5518715501
  C        16.1870787354        6.4969373877       15.3050419568
  C        42.9458478947       31.8596486164       10.0728691855
  C        43.6462531432       30.7719162760       10.8168000918
  C        44.5912885619       31.0932811391       11.8033259536
  C        45.1970159574       30.0877572576       12.5510209732
  C        44.8711227637       28.7346299469       12.3357432543
  C        43.9459197236       28.4202557258       11.3219529225
  C        43.3371028073       29.4253751770       10.5738848785
  C        45.4886180753       27.6553027255       13.1389624376
  C        45.4925800948       27.6808242361       14.5606681237
  C        44.8055063270       28.6888626133       15.3073260377
  C        14.8564326915        8.5629537918       15.2642479107
  C        14.8754531006        8.5633388223       12.4515755693
  C        42.9465581549       31.9618134528        5.8090267823
  C        43.6919390763       30.8856346832        5.0956877132
  C        44.6560811621       31.1915590502        4.1229471415
  C        45.2776380044       30.1719687497        3.4052377011
  C        44.9543334900       28.8216077578        3.6432761586
  C        44.0215026251       28.5239514207        4.6546769474
  C        43.3932150372       29.5407067235        5.3668511152
  C        45.5632302425       27.7241643785        2.8579838782
  C        45.5332111098       27.7173268433        1.4366858883
  C        44.8268475738       28.7075245508        0.6837220566
  C        35.0882102849       26.6443357666        0.7488630982
  C        35.0570163964       26.6171942612        3.5593742729
  C        18.1487064106        3.2471683831        5.7065279243
  C        17.4302148709        4.3438945048        4.9972487220
  C        16.4147561440        4.0526469332        4.0739103781
  C        15.7664495942        5.0832943452        3.3985843051
  C        16.1213637439        6.4285161896        3.6210895716
  C        17.1130467716        6.7118712801        4.5780381008
  C        17.7607341533        5.6829538867        5.2577726343
  C        15.4907433867        7.5241613840        2.8486794458
  C        15.4964475023        7.5073970376        1.4275512620
  C        16.1932462445        6.5057190276        0.6808558953
  H        10.6721861804       12.4650648397        3.9053475403
  H        11.6944662170       10.5502448982        2.6635159539
  H        15.3923478020       11.1697576241        4.7710781008
  H        14.3519195469       13.0724854343        6.0162091063
  H        13.3759331908       11.6309763706        1.2013876102
  H        50.3229026991       22.7483031735        3.9866618706
  H        49.3197524929       24.6228087373        2.6806759470
  H        45.6425600898       24.1615261406        4.8640971533
  H        46.6635613119       22.2904352851        6.1722784717
  H        47.6296606772       23.5758187002        1.2463149528
  H        14.8727133426        8.5885994339        4.6086020548
  H        50.2869458063       22.7022978402       12.0607393942
  H        49.2690042285       24.5751794835       13.3608149243
  H        45.6107803813       24.1096721122       11.1456665064
  H        46.6529855458       22.2542493332        9.8313812544
  H        47.6075369416       23.5517278254       14.7969330701
  H        40.6649965474       17.1354142616       11.4257723627
  H        48.6871124855       14.0950173159        7.8000341875
  H        10.6812360779       12.4660085197       12.0925689240
  H        11.6896116063       10.5241096399       13.2962391744
  H        15.3944066711       11.1602877696       11.2068690693
  H        14.3658685923       13.0885894367        9.9916177939
  H        13.3756844093       11.6220195402       14.7531785532
  H        47.9303330712       14.2182302048        9.7110011088
  H        47.7801051324       14.3737114154        6.4952222052
  H        49.0848887624       18.5527708341       10.8676681222
  H        10.4163929543       14.1342660619        7.9986878911
  H        24.4880319947        3.0282801253        3.9192241137
  H        25.6328273350        4.8856965175        2.6956862140
  H        23.2615473335        7.7553902681        4.8495139581
  H        22.1346620574        5.8884921038        6.0748213203
  H        23.8225371477        5.7908956747        1.2702479395
  H        36.3593091160       32.1906826205        3.9840860532
  H        35.2137025283       30.3720282638        2.7166440586
  H        37.4753117593       27.4374768259        4.9021374371
  H        38.6007813161       29.2695821905        6.1790842147
  H        36.9911367712       29.4534431247        1.3005903395
  H        25.7524259593        8.6125026889        4.6519555799
  H        36.4558060589       32.2468864000       12.1121162504
  H        35.3409924729       30.4352630501       13.4127809681
  H        37.5396756995       27.4897272374       11.1766858134
  H        38.6288306453       29.3134685824        9.8632305492
  H        37.0269370601       29.4746279140       14.8528725968
  H        46.1097713727       26.5878074994       11.3856734695
  H        44.6684885551       35.1163411339        7.8139679311
  H        24.4329939521        3.0372396122       12.0902182070
  H        25.5659569483        4.8746221860       13.3420585245
  H        23.1733184125        7.7672274500       11.2435864638
  H        22.0518595078        5.9180289693        9.9914076735
  H        23.7973406409        5.7906516623       14.8221863501
  H        44.9544574455       34.3909012657        9.6954552383
  H        44.9023846878       34.2070604297        6.4906467285
  H        40.6670975257       33.2099779113       10.8534981021
  H        23.1504335658        1.9583540697        8.0053578153
  H        25.8291527375       19.6431588506        3.8977689925
  H        23.6581412508       19.6875263497        2.6673628816
  H        22.3556872406       16.2224059828        4.8568765666
  H        24.5307990342       16.1927066241        6.0838375857
  H        23.7271468419       17.6523924729        1.2407740949
  H        35.1024789126       15.5213628886        3.9210241026
  H        37.2310336086       15.4753443771        2.6150696292
  H        38.7196380102       18.7699201359        4.9477515046
  H        36.5928174868       18.7850815224        6.2656672187
  H        37.2295607668       17.4430475145        1.2423098278
  H        20.3660434739       17.9792260879        4.6696605984
  H        35.2055463449       15.4666027762       12.0883958637
  H        37.3395194109       15.4265925485       13.3869060115
  H        38.7431532595       18.8320277823       11.1652415440
  H        36.6037537966       18.8536751788        9.8658757712
  H        37.2514153628       17.4430074485       14.7883233495
  H        35.1535839198       26.6923360097       11.4059936339
  H        28.5070908952       21.0748296540        7.9725748356
  H        25.7475024891       19.6375888992       12.1537372366
  H        23.5658590953       19.6875643862       13.3716016705
  H        22.2985857943       16.1802386140       11.2296186783
  H        24.4822826795       16.1495495925       10.0097162466
  H        23.7024619301       17.6417135164       14.7930596294
  H        29.0128796478       21.7167622226        9.7563921128
  H        29.1607988075       21.7409338350        6.6293851081
  H        32.0911145465       18.5545563161       10.9963447987
  H        27.4031576252       19.0713669629        8.0834970862
  H        14.8471974841       19.6471113361       12.1421568243
  H        17.0089777375       19.6934284269       13.3862930824
  H        18.3027085840       16.1885297401       11.2557701116
  H        16.1370607226       16.1578219159       10.0109698808
  H        16.9218479499       17.7012770622       14.8527124689
  H        46.0961183232       15.4588674779       12.0835302305
  H        43.9745957726       15.4196417836       13.3991520000
  H        42.5675288651       18.8448123108       11.2096333117
  H        44.6893331261       18.8588432727        9.8845757394
  H        44.0325470391       17.3669127473       14.8508881443
  H        20.2875544264       17.9228535806       11.4219941243
  H        46.0368643465       15.3913646198        4.0312945908
  H        43.9034645108       15.3367023496        2.7385864158
  H        42.5148772548       18.7877984027        4.8976137030
  H        44.6555444789       18.8297819995        6.1896072814
  H        44.0105773741       17.3366753842        1.3011147607
  H        46.1999949975       26.6829538132        4.6234233429
  H        52.7413569481       21.0626676000        8.1947105534
  H        14.8831411322       19.6768147463        3.8983383373
  H        17.0844384813       19.7515616381        2.7209238280
  H        18.3402206548       16.2345885763        4.8536141535
  H        16.1411754260       16.1837034562        6.0410266193
  H        16.9456719607       17.7175655890        1.2997666995
  H        52.3228062772       21.6733382693        6.2940813032
  H        52.0134269686       21.7022048968        9.4955940033
  H        49.0680129185       18.6074640717        5.2038458103
  H        13.2479933137       19.0158372801        7.9774420415
  H        29.9578948328       12.4435941004       12.2204406422
  H        28.8908438599       10.5146018711       13.3961497795
  H        25.2507719210       11.2013997060       11.2116542263
  H        26.3355711218       13.1208265852       10.0312672958
  H        27.1750717294       11.6710781717       14.7901826045
  H        30.9839250498       22.7927722955       11.9994671653
  H        31.9869780138       24.6750307861       13.2970719644
  H        35.6924156401       24.1434482242       11.1786678527
  H        34.6675702614       22.2702110691        9.8739831578
  H        33.6377150591       23.5997013637       14.7538992794
  H        25.7082598174        8.5919689521       11.4056497198
  H        30.8875935208       22.7012490551        3.9390566703
  H        31.8980652037       24.5736205861        2.6401986309
  H        35.5519207554       24.1351208954        4.8675866867
  H        34.5237226303       22.2652313608        6.1682638611
  H        33.5917496168       23.5843298219        1.2063799469
  H        40.5865198146       17.0742561999        4.6629436553
  H        32.5122340364       14.1500147929        8.2599794448
  H        29.9109759297       12.5228059231        3.9181490340
  H        28.8813391756       10.6237986479        2.6673673674
  H        25.2167220062       11.1832611239        4.8481900283
  H        26.2649218395       13.0730408671        6.1042840162
  H        27.1731211405       11.6884212060        1.2376432746
  H        33.2952153044       14.1842264471        6.4376475836
  H        33.4084452149       14.4132566152        9.6022798760
  H        32.1285390527       18.5361784473        5.2418283142
  H        30.2271012893       14.1916468996        8.0803130943
  H        16.1180713335        2.9636170793       12.1293052003
  H        14.9530801339        4.8208213217       13.3220289454
  H        17.3674773687        7.6860852691       11.2108646784
  H        18.5160472038        5.8185954586       10.0111397039
  H        16.7538705610        5.7397678048       14.7715527268
  H        44.8272270362       32.1403964178       11.9778123049
  H        45.9365770304       30.3416189397       13.3072295234
  H        43.6838970641       27.3781056318       11.1513022068
  H        42.6011161541       29.1900233374        9.8086203921
  H        44.2303192896       29.4367685030       14.7690380436
  H        14.8520608191        8.5468198939       11.3633466053
  H        44.8993061725       32.2342567095        3.9311575538
  H        46.0242336630       30.4132694518        2.6517127202
  H        43.7651701420       27.4841694884        4.8467984327
  H        42.6472732964       29.3179355975        6.1258490092
  H        44.2685349390       29.4705587415        1.2182987876
  H        35.0106664912       26.6273886272        4.6467635736
  H        36.6054205336       35.1342208014        8.1805913198
  H        16.1434775868        3.0131011829        3.9043501341
  H        14.9739665000        4.8565370444        2.6886516814
  H        17.3969246329        7.7472905511        4.7546121859
  H        18.5439527690        5.8934812614        5.9821420971
  H        16.7648852116        5.7556237149        1.2192735217
  H        36.2789722281       34.4824421077        6.2729593889
  H        36.3815331490       34.2088745850        9.4991588462
  H        40.5801043545       33.2027933539        5.1535270355
  H        17.4712166856        1.9478583974        7.9740893233
  H        29.0512081255       19.3487342518       12.5514281787
  H        29.8944325069       19.6926221145        3.6351073431
  H        30.5948575385       15.7553483780        3.7797028099
  H        31.3422267339       15.6268332436       12.5685450687
  H        28.3729954401       18.0078760197       15.1917299408
  H        29.7810010461       15.3979918588       15.0428002691
  H        32.0942102407       19.8704545082        1.7801849478
  H        33.1293184570       17.6796313215        1.5225999581
  H        28.0127028577       16.6388102360        2.3400486596
  H        32.5474241204       18.6448059109       14.8059313740
  H        18.8537371700        0.8690305342       12.3352162286
  H        40.5284055587       35.2288550160        3.9518596743
  H        42.3250222034       34.4196851318        3.5897099359
  H        22.0874155760        0.6922670807       12.3515197454
  H        11.5968987404       18.7128321482       12.3824971828
  H        52.2649785939       18.4313239746        3.6770897452
  H        49.2553111460       16.4765819756        3.5843130466
  H        10.1503569511       15.7982292022       12.2928440615
  H        50.8502483081       17.6924390618        3.9541752342
  H        10.0462954027       17.3945544051       12.0519322204
  H        20.2152519827        0.0023311000       12.0418447044
  H        39.1842417505       36.1249700992        3.6867293011
 Ni        31.2419274984       17.9339167808        3.0004857757
 Ni        31.4488403917       16.5532720302        0.3293611510
 Ni        30.3527695580       18.7947225408        0.3316745737
 Ni        30.3145570288       17.5482507347       13.4917043955
  O        10.6499647656       14.3650637346        5.4858611447
  O        12.6131677009       14.6575394942        6.5838950191
  O        49.1480673498       16.8458009214        7.9896792600
  O        50.3503332094       20.9357649433        5.6479314787
  O        48.3485810674       20.5933630742        6.6658689632
  O        11.0519102658       17.0536978504        6.5007641643
  O        50.3209956748       20.8816816519       10.4068801070
  O        48.3467366809       20.5867905846        9.3271218875
  O        49.5439078903       18.2483933584       10.0681515230
  O        12.3592495626       18.6246241177        7.9996444316
  O        48.6932689005       14.1485852371        6.7512993734
  O         8.2099455827       14.2103909985        9.3225156182
  O        10.7354087728       14.5067424803       10.6642790377
  O        12.5718504172       14.5828279351        9.3284928653
  O        22.8446790833        2.0432333795        5.4871771100
  O        21.6061410704        3.5925879864        6.5890879576
  O        42.0582949670       34.1375507571        7.9788723523
  O        37.9811995657       33.1364175355        5.5723012175
  O        39.2173314275       31.5749546205        6.6659266226
  O        20.3085305550        1.0397418228        6.5022357668
  O        38.0245745983       33.1855749777       10.4155257662
  O        39.2184823304       31.5830313148        9.3273101217
  O        40.6523157127       33.7694271981       10.0600451220
  O        18.2556421599        1.3763262023        7.9967139778
  O        44.6222102061       35.1005788353        6.7587955578
  O        24.2054394541        0.0000026042        9.3207110226
  O        22.7529083989        2.0573852022       10.5836969648
  O        21.6246578715        3.5961165067        9.3430420770
  O        27.5029830989       18.7528398615        5.4969442178
  O        26.7668404109       16.9343404207        6.6543774900
  O        30.6600604303       19.4038884356        8.0788944005
  O        33.5830818308       16.2810975846        5.6686474658
  O        34.2736593122       18.1708463836        6.7402785285
  O        29.5713315924       17.0618930246        6.5839918238
  O        33.6106974108       16.3290771704       10.4191002679
  O        34.3055077331       18.2442468538        9.4096528869
  O        31.6518902265       18.3156392465       10.1635043351
  O        30.3236154267       15.1581456399        8.0901519791
  O        28.5534277500       21.0311164749        6.9036297008
  O        28.5151618611       20.9538691447        9.4160191476
  O        27.4574128406       18.6792435239       10.6601578455
  O        26.6944014884       16.9293554093        9.4138290662
  O        13.1485153016       18.6929672524       10.5873651612
  O        13.9194230363       16.9163368651        9.4051662706
  O        50.5965696539       19.3502499239        8.0202400405
  O        47.6836872708       16.3269625055       10.4173395226
  O        46.9524071845       18.1760323845        9.3241156670
  O        11.0700897690       17.0153489258        9.4895450754
  O        47.6755757986       16.3356841957        5.6528431968
  O        46.9272852157       18.2358557973        6.6647016343
  O        49.5689444967       18.3176565757        5.9822692508
  O        10.3187470371       15.1000865320        7.9970799428
  O        52.6707803104       21.0278723558        9.2418044076
  O        12.1468681200       20.8911876620        6.6732512489
  O        13.1087090359       18.6135697292        5.3254975703
  O        13.9575729205       16.9871954808        6.6651889207
  O        29.9946411469       14.4437628727       10.7324020669
  O        28.0904215319       14.6536451981        9.4954491357
  O        32.1328621027       16.8528277328        8.1027838197
  O        30.9641486813       20.9512176323       10.4129439449
  O        32.9458050893       20.6062603020        9.3425208237
  O        29.5688003303       17.0759910396        9.5778203359
  O        30.8507997480       20.8880351809        5.6584069211
  O        32.8702696938       20.5876441133        6.6646467283
  O        31.6909254722       18.2531128912        6.0644100028
  O        28.2893575951       18.6744109856        8.0825493774
  O        32.4918860934       14.2158504152        9.3343240916
  O        32.4055985091       14.2116184458        6.8272918868
  O        29.9229880500       14.4514079341        5.4814576303
  O        28.0439750980       14.5866584417        6.7499249609
  O        17.8892902514        1.9666603111       10.6627649773
  O        18.9562873918        3.5271351909        9.4079150148
  O        39.1685632801       34.1387237867        7.9971101359
  O        43.2801801987       33.0589551573       10.3317088811
  O        42.0343741189       31.5064675452        9.2416150006
  O        20.3178338600        1.0370221502        9.4798562445
  O        43.2760875443       33.1826625409        5.5748889551
  O        42.0052268869       31.5841682704        6.5829616490
  O        40.5789504146       33.7751192694        5.9358883397
  O        22.3675023011        1.3848077218        7.9978815364
  O        36.6728236151       35.0997786573        9.2332580111
  O        16.4457664771        0.0642424244        6.6682432404
  O        17.9365460921        2.0433677708        5.3264108974
  O        18.9191327732        3.5931383288        6.6659183816
  O        29.9164070237       18.8216901878        4.0747264566
  O        29.7806708558       18.9008558849       12.0846132014
  O        31.2150144682       16.4083147004        4.1541705225
  O        31.2636493494       16.4695266905       12.0829256176
  O        32.4859397284       17.0144029412        1.8328605516
  O        28.2170952070       16.1997871768        1.4959193551
  O        30.5819274099       15.9028661112       14.8188839210
  O        31.7288875947       18.1569569067       14.9961544472
  O        31.2096257420       19.4873491161        1.9067611667
  O        29.1431326450       18.5290279308       14.9001310815
  O        39.4569946916       35.2440805931        4.0019655718
  O        19.1416076132        0.0045344213       11.9904624510
  O        41.9693326114       35.1724537381        4.0870430677
  O        21.6911956839       -0.0693149220       11.8959098799
  O        51.3651412416       18.6142940400        4.0053742054
  O        10.7510868647       18.7471622478       11.9049382204
  O        50.0796197928       16.4127798431        4.0917862829
  O         9.5245034611       16.4830723395       11.9912261974
 Zr         9.2977644023       16.0526090115        6.1825239934
 Zr        49.8372856403       16.0064804812        9.7462883496
 Zr        22.0737793679        0.0310334748        6.1885982292
 Zr        42.4613608082       35.1544759725        9.8010790510
 Zr        29.6065715107       19.0773345111        6.3063345322
 Zr        29.5742559868       19.1671672802        9.8983138570
 Zr        11.0389155265       19.0516097630        9.8277790905
 Zr        11.0449917538       19.1545002389        6.2506997649
 Zr        31.3408291575       16.1071870763        9.9104220902
 Zr        31.4049425845       16.0150182862        6.3113462890
 Zr        18.6017416453       -0.0001635165        9.7632334821
 Zr        18.5071443491       -0.0066904974        6.2137147012
 Zr        12.3034380004       16.3235507196        7.9902313523
 Zr        48.6177877504       18.8331037893        8.0099755761
 Zr        20.3161735847        2.4750718022        7.9903586328
 Zr        40.6441701082       32.6881496552        7.9780101166
 Zr        28.3412962956       16.3391487053        8.0831517606
 Zr        32.6276810358       18.8341815480        8.0696518266
  H        29.1926487278       16.2675936009        1.4265957287
  H        30.8947375847       15.5185048522        1.1684117721
