     574
 i =      256, E =     -4778.8724791439
  C        11.8588807628       14.0534788545        5.7415107081
  C        12.4563797872       12.8906682957        5.0231887727
  C        11.7044875436       12.1712604336        4.0820278101
  C        12.2808908986       11.1090476682        3.3897417889
  C        13.6216949552       10.7397452413        3.6169879945
  C        14.3551463638       11.4438997030        4.5898113990
  C        13.7822308934       12.5088962217        5.2812717991
  C        14.2611188210        9.6489853210        2.8436194051
  C        14.2561598133        9.6567628704        1.4219259591
  C        13.7428852800       10.7588518890        0.6680497432
  C        49.1270680827       21.2330315636        5.8796799984
  C        48.5503359263       22.4011770569        5.1526965589
  C        49.3001261620       23.0681017025        4.1712706362
  C        48.7331797287       24.1072721272        3.4380895829
  C        47.4028422056       24.5093103693        3.6671515390
  C        46.6721962249       23.8609130938        4.6811953836
  C        47.2346555240       22.8159789128        5.4104989903
  C        46.7724469192       25.5869358996        2.8698964434
  C        46.7610533330       25.5571418784        1.4481347606
  C        47.2608277773       24.4419832928        0.7046253085
  C        14.8600382599        8.5704025814        0.7086546950
  C        14.8921329465        8.5971864859        3.5202728132
  C        49.1133108921       21.2033481474       10.1453214260
  C        48.5278870110       22.3648080266       10.8725027678
  C        49.2668785388       23.0250588790       11.8658855096
  C        48.6905498676       24.0596066998       12.5973926519
  C        47.3603655874       24.4568577381       12.3587022079
  C        46.6402645637       23.8124947697       11.3346087497
  C        47.2138173969       22.7766042103       10.6027922093
  C        46.7217998813       25.5317544576       13.1497512407
  C        46.7331805437       25.5279272186       14.5714672315
  C        47.2485095995       24.4286670179       15.3278611074
  C        40.6220467873       17.0995891624       15.3074013689
  C        40.6346809321       17.1041572813       12.4976539297
  C        11.8831815066       14.0865164782       10.2855577307
  C        12.4725063507       12.9108785403       10.9898392554
  C        11.7148496991       12.1773314495       11.9155873317
  C        12.2814939202       11.0949052081       12.5839709590
  C        13.6204936952       10.7215519604       12.3525055732
  C        14.3586721477       11.4375541327       11.3921886252
  C        13.7931933287       12.5186973177       10.7194968555
  C        14.2540063884        9.6247167928       13.1228752244
  C        14.2523758628        9.6444784649       14.5447125147
  C        13.7424026574       10.7533708047       15.2917976396
  C        22.5136124471        3.2448625563        5.7533660416
  C        23.2311807057        4.3487975691        5.0554431903
  C        24.2280199249        4.0667147831        4.1094598691
  C        24.8579775167        5.1047212013        3.4278153432
  C        24.5072377186        6.4475855826        3.6714725941
  C        23.5391636275        6.7210760135        4.6551078561
  C        22.9045034928        5.6849431882        5.3353223551
  C        25.1140008577        7.5531032494        2.8948895157
  C        25.0840454390        7.5461814155        1.4733915968
  C        24.3815724935        6.5464157027        0.7282546274
  C        38.2988123780       31.9280172362        5.8517641820
  C        37.5581830712       30.8387067614        5.1493251535
  C        36.5916231155       31.1455564623        4.1791491952
  C        35.9619115855       30.1277042634        3.4677699475
  C        36.2835434891       28.7765561062        3.7032716950
  C        37.2198779392       28.4769620650        4.7108397662
  C        37.8534198671       29.4939285312        5.4216808457
  C        35.6732568009       27.6888355445        2.9036065541
  C        35.7115284147       27.7057487112        1.4817802490
  C        36.4251192500       28.7064704927        0.7493194658
  C        25.7035321138        8.6176034193        0.7524695241
  C        25.7128525256        8.6278095673        3.5643457684
  C        38.3307745389       31.9619826963       10.1596485929
  C        37.6129214057       30.8898629473       10.9093985297
  C        36.6803818195       31.2019850240       11.9105970258
  C        36.0686472459       30.1866285550       12.6437356314
  C        36.3747059081       28.8328748219       12.3993490545
  C        37.2885091862       28.5304975891       11.3711206593
  C        37.9021503628       29.5425318218       10.6392619114
  C        35.7571725128       27.7360105552       13.1808036005
  C        35.7540426706       27.7301906109       14.6032796881
  C        36.4442821973       28.7188795085       15.3726568588
  C        46.1351470634       26.6205505283       15.2816220882
  C        46.0880418100       26.5802610282       12.4737261719
  C        22.4612964290        3.2561085507       10.2579801235
  C        23.1554194881        4.3639942706       10.9809039838
  C        24.1565857419        4.0772104550       11.9226618421
  C        24.7848311823        5.1067917269       12.6190484733
  C        24.4322889595        6.4531555149       12.3967615016
  C        23.4543659848        6.7330167832       11.4233320906
  C        22.8214651340        5.7037930160       10.7272589365
  C        25.0631988749        7.5510512991       13.1709915682
  C        25.0584244495        7.5444273406       14.5938912738
  C        24.3674571030        6.5465788191       15.3514001752
  C        26.6223287232       17.8638427262        5.7831833143
  C        25.3166441642       17.9042949085        5.0565069708
  C        25.0591573698       18.8960115509        4.0968262923
  C        23.8462863341       18.9148178401        3.4108852787
  C        22.8540718389       17.9453126600        3.6622213001
  C        23.1086511090       16.9751964287        4.6500338219
  C        24.3236198469       16.9505221837        5.3333538699
  C        21.5803592114       17.9310604208        2.8984799781
  C        21.5799910625       17.9086423542        1.4757572959
  C        22.7849821319       17.7793233682        0.7150566486
  C        34.4357931053       17.1969080122        5.9179420327
  C        35.7249380583       17.1529936441        5.1653745771
  C        35.9257274161       16.1900181295        4.1638498772
  C        37.1066043385       16.1767638032        3.4264682010
  C        38.1197518770       17.1249118173        3.6701532465
  C        37.9201264957       18.0697412721        4.6948043939
  C        36.7365801156       18.0885201499        5.4295139799
  C        39.3746681625       17.1307315733        2.8843061406
  C        39.3687344397       17.1363912136        1.4625082197
  C        38.1610941686       17.2543007734        0.7048586593
  C        20.3328685814       17.9308489024        0.7679504696
  C        20.3556113035       17.9363165145        3.5812358231
  C        34.4403088556       17.2354258939       10.1912275712
  C        35.7427732713       17.1336010670       10.9108893688
  C        35.9487862657       16.1558462757       11.8954352840
  C        37.1403754521       16.1261661258       12.6160552959
  C        38.1545372058       17.0730137556       12.3719182586
  C        37.9551530303       18.0225532445       11.3522938103
  C        36.7630728889       18.0573818839       10.6352665932
  C        39.4041550669       17.0920720249       13.1644370860
  C        39.3837761284       17.1156491396       14.5855069268
  C        38.1676785393       17.2419047008       15.3283393282
  C        35.1130683503       26.6538487906       15.3025523557
  C        35.1687061176       26.6669701967       12.4929500353
  C        26.5709952149       17.8279373569       10.3261405470
  C        25.2557148960       17.8761474261       11.0292953369
  C        24.9898392267       18.8817300771       11.9709654341
  C        23.7728279347       18.9053377259       12.6460337791
  C        22.7912406613       17.9242598804       12.4016379701
  C        23.0502546554       16.9447387330       11.4258580372
  C        24.2686694075       16.9180999435       10.7502177642
  C        21.5283092113       17.9048117919       13.1758455226
  C        21.5532788381       17.8946460676       14.5974972803
  C        22.7718074460       17.7733868970       15.3384362652
  C        14.0471267581       17.8290406062       10.2890802287
  C        15.3510277713       17.8865783524       11.0143675399
  C        15.6066008098       18.8890946266       11.9631631436
  C        16.8153293791       18.9103814457       12.6563669545
  C        17.8031528061       17.9320279483       12.4234035723
  C        17.5522725583       16.9539401554       11.4423522422
  C        16.3430625070       16.9280010718       10.7505730391
  C        19.0722105943       17.9151964861       13.1923785364
  C        19.0716454759       17.9132907596       14.6149409499
  C        17.8649309621       17.8165255413       15.3768708593
  C        46.8037920765       17.2164872768       10.1567185950
  C        45.5107477231       17.1475748011       10.8980372854
  C        45.3058738432       16.1647219948       11.8787361431
  C        44.1221852835       16.1384147175       12.6115357373
  C        43.1131773735       17.0947198410       12.3854282735
  C        43.3147188230       18.0566068024       11.3771702426
  C        44.4994269421       18.0869015701       10.6454328351
  C        41.8597877027       17.1002852633       13.1746325504
  C        41.8677012876       17.1089960068       14.5967228687
  C        43.0775253466       17.2096867285       15.3533960763
  C        20.3187882620       17.9223251526       15.3228206947
  C        20.2961350813       17.8943898178       12.5096514917
  C        46.7850655215       17.2329654134        5.8862821824
  C        45.4827530561       17.1309083298        5.1658658331
  C        45.2628471624       16.1327917475        4.2044269144
  C        44.0753190858       16.1077059512        3.4766491570
  C        43.0773225916       17.0780419418        3.6923014385
  C        43.2883211099       18.0472433038        4.6909060387
  C        44.4767654665       18.0783352630        5.4141062862
  C        41.8297202357       17.0998077997        2.8959446959
  C        41.8524237450       17.1083105321        1.4744837228
  C        43.0703910189       17.2061737195        0.7304641730
  C        46.1529570317       26.6369901047        0.7263943363
  C        46.1627607107       26.6562159752        3.5360220727
  C        14.0466805528       17.8322059463        5.7087638099
  C        15.3681641495       17.9074004215        5.0195260022
  C        15.6419262390       18.9222891422        4.0902648393
  C        16.8713335595       18.9597928989        3.4361039008
  C        17.8553978406       17.9815250123        3.6845739271
  C        17.5886437509       16.9961548607        4.6526963888
  C        16.3613335244       16.9581241678        5.3105654513
  C        19.1225937278       17.9557949233        2.9150430769
  C        19.0979954624       17.9326360250        1.4934363123
  C        17.8778160572       17.8251913882        0.7530780580
  C        28.8099389496       14.0907940567       10.3927530409
  C        28.1979342683       12.9160910903       11.0771337716
  C        28.9204965776       12.1723141168       12.0218394488
  C        28.3193769547       11.0991916094       12.6745160314
  C        26.9819899546       10.7444591104       12.4051387767
  C        26.2818399970       11.4668767923       11.4223451603
  C        26.8801625710       12.5412267409       10.7691559581
  C        26.3123940645        9.6654678810       13.1670554555
  C        26.3007603487        9.6927194156       14.5882202335
  C        26.7991462582       10.8086683572       15.3327689019
  C        32.1762927631       21.2410066105       10.1507461591
  C        32.7672322367       22.4107370038       10.8679966501
  C        32.0127365900       23.0969300053       11.8321236669
  C        32.5795189018       24.1399079947       12.5586003433
  C        33.9172551342       24.5245486076       12.3435363561
  C        34.6543737104       23.8574527461       11.3469091475
  C        34.0894621382       22.8098069185       10.6215155937
  C        34.5431571461       25.5999799091       13.1473331763
  C        34.5224365139       25.5729893523       14.5690823739
  C        34.0015868202       24.4608545951       15.3031985351
  C        25.6949543137        8.6129845612       15.3076279029
  C        25.6764057963        8.6141332197       12.4941651898
  C        32.0787581189       21.1999362305        5.8769797979
  C        32.6504631624       22.3580997958        5.1257898287
  C        31.9129311071       23.0145406937        4.1281641395
  C        32.4847704852       24.0556418441        3.3982647990
  C        33.8082553193       24.4716013861        3.6467202591
  C        34.5276032002       23.8275230863        4.6718758549
  C        33.9610709700       22.7828113320        5.3968199729
  C        34.4471338274       25.5597453031        2.8692493269
  C        34.4719048231       25.5531018834        1.4472379213
  C        33.9765853600       24.4522953542        0.6796638826
  C        40.6140516632       17.1049687845        0.7523011946
  C        40.5993306172       17.1281924331        3.5623744857
  C        28.7498069882       14.0672161585        5.8171313129
  C        28.1394978632       12.9228184474        5.0780439766
  C        28.8708972682       12.2362761421        4.0970042698
  C        28.2907692162       11.1793304036        3.3999138414
  C        26.9630503297       10.7831278183        3.6579677529
  C        26.2486515002       11.4580957879        4.6654079210
  C        26.8271314208       12.5154643075        5.3644821427
  C        26.3209702382        9.6923350069        2.8860590961
  C        26.3057135810        9.7070869717        1.4640822755
  C        26.7986276901       10.8176056291        0.7089430068
  C        18.1355280115        3.1812121145       10.3171833009
  C        17.4063736363        4.2783839270       11.0158207266
  C        16.3903019359        4.0000858284       11.9429917430
  C        15.7426135838        5.0400977260       12.6064325160
  C        16.0949202700        6.3837913731       12.3671012952
  C        17.0847745962        6.6532673049       11.4038123637
  C        17.7338419136        5.6158912657       10.7387855547
  C        15.4704716329        7.4914291223       13.1301407033
  C        15.4854209639        7.4905185488       14.5518561619
  C        16.1869776864        6.4968979720       15.3050135784
  C        42.9458238482       31.8596626685       10.0728595939
  C        43.6462487342       30.7718932794       10.8168215811
  C        44.5913102751       31.0932592146       11.8033132487
  C        45.1970255599       30.0877315332       12.5510285427
  C        44.8711154747       28.7346109264       12.3357727798
  C        43.9458507311       28.4202404483       11.3220424347
  C        43.3370410462       29.4253619629       10.5739605785
  C        45.4886008703       27.6552697483       13.1389947843
  C        45.4925089574       27.6807291625       14.5607005005
  C        44.8054301933       28.6887618954       15.3073574066
  C        14.8563446727        8.5629338388       15.2642311014
  C        14.8754197644        8.5633255223       12.4515534126
  C        42.9465290618       31.9618402897        5.8090393888
  C        43.6919478270       30.8856101566        5.0957010023
  C        44.6560767447       31.1915194396        4.1229574308
  C        45.2776396900       30.1719219195        3.4052498727
  C        44.9543355828       28.8215731424        3.6433131601
  C        44.0214803837       28.5239244392        4.6546888185
  C        43.3931907486       29.5406952568        5.3668495671
  C        45.5631962944       27.7241012356        2.8580144371
  C        45.5331307868       27.7172214452        1.4367132299
  C        44.8267531501       28.7074132426        0.6837544750
  C        35.0893931168       26.6428148720        0.7479297646
  C        35.0589887519       26.6149529810        3.5584313516
  C        18.1487098530        3.2471546405        5.7064997842
  C        17.4302512957        4.3438992311        4.9971920233
  C        16.4146229559        4.0526760163        4.0740421990
  C        15.7663289872        5.0833324606        3.3987207871
  C        16.1214317172        6.4285282851        3.6210556267
  C        17.1133676758        6.7118741663        4.5777403235
  C        17.7610461377        5.6829371478        5.2574676238
  C        15.4907704838        7.5241680525        2.8486564453
  C        15.4963984957        7.5073830059        1.4275272109
  C        16.1931638505        6.5056872151        0.6808266073
  H        10.6721865985       12.4649869168        3.9053874295
  H        11.6945113235       10.5501846209        2.6635727824
  H        15.3924503478       11.1699341552        4.7709545561
  H        14.3520397338       13.0726147688        6.0160602138
  H        13.3760195653       11.6310261684        1.2013783300
  H        50.3226951757       22.7477754628        3.9862161946
  H        49.3195541820       24.6222535055        2.6802289453
  H        45.6429449424       24.1621941107        4.8648755758
  H        46.6639596822       22.2911168298        6.1730924038
  H        47.6294921360       23.5756577697        1.2463111715
  H        14.8729359242        8.5886859528        4.6085884661
  H        50.2867593072       22.7018545495       12.0611115638
  H        49.2688468062       24.5747174134       13.3612054342
  H        45.6111060669       24.1102690259       11.1450493368
  H        46.6532806404       22.2548671477        9.8307327922
  H        47.6073710691       23.5515832602       14.7969593566
  H        40.6396558667       17.0644414161       11.4100362381
  H        48.6872703421       14.0951436371        7.8001094727
  H        10.6812414234       12.4660801109       12.0926871331
  H        11.6896579020       10.5242032868       13.2963796863
  H        15.3943321715       11.1601967764       11.2067258732
  H        14.3658155433       13.0884555591        9.9914920961
  H        13.3757565755       11.6220751694       14.7531857653
  H        47.9302934833       14.2188400862        9.7108445271
  H        47.7800298225       14.3741256715        6.4955575616
  H        49.0838893585       18.5521813100       10.8673375898
  H        10.4164321157       14.1343014605        7.9987242126
  H        24.4866647729        3.0276030043        3.9184415552
  H        25.6307620863        4.8853096264        2.6942741207
  H        23.2610955322        7.7547413629        4.8501304557
  H        22.1348799916        5.8876285119        6.0761051319
  H        23.8221247083        5.7888535306        1.2692734486
  H        36.3586723904       32.1897048111        3.9840748344
  H        35.2133052739       30.3709267437        2.7168981184
  H        37.4769082396       27.4369134620        4.9010002332
  H        38.6018463079       29.2691325599        6.1779892046
  H        36.9885921133       29.4544387026        1.2994502393
  H        25.7513736800        8.6101064703        4.6520398642
  H        36.4543731297       32.2469048806       12.1108626604
  H        35.3387660730       30.4353997942       13.4109834573
  H        37.5386105151       27.4896974725       11.1762875829
  H        38.6284698132       29.3133438085        9.8632399013
  H        37.0234992102       29.4760452705       14.8518611092
  H        46.1098890146       26.5879055773       11.3856991319
  H        44.6685416419       35.1163895384        7.8138724911
  H        24.4333992526        3.0388145201       12.0902256265
  H        25.5649482558        4.8772567621       13.3417375620
  H        23.1706639912        7.7677988772       11.2423871850
  H        22.0507761301        5.9176498991        9.9903162293
  H        23.7965652091        5.7897926834       14.8212772993
  H        44.9544136063       34.3908614481        9.6954868355
  H        44.9022901845       34.2069676893        6.4906906927
  H        40.6670013853       33.2100228168       10.8535140486
  H        23.1503405867        1.9585148539        8.0053311824
  H        25.8226179918       19.6460851037        3.9038264516
  H        23.6521397515       19.6896016989        2.6722858123
  H        22.3554805121       16.2163425398        4.8521604197
  H        24.5304457427       16.1870750392        6.0796662329
  H        23.7261033833       17.6511907764        1.2423188791
  H        35.1411002037       15.4611592741        3.9746419346
  H        37.2615880250       15.4200469150        2.6604426436
  H        38.6935020956       18.8105097535        4.8875462996
  H        36.5675944512       18.8310235576        6.2060920434
  H        37.2232340462       17.3831921651        1.2370976221
  H        20.3632115913       17.9767398479        4.6690924313
  H        35.1578985877       15.4364577648       12.0948214721
  H        37.2978991694       15.3651375689       13.3772541915
  H        38.7315883718       18.7594187728       11.1573616845
  H        36.5885828691       18.8095715459        9.8698147761
  H        37.2349862271       17.3609014644       14.7845013861
  H        35.1514549460       26.6924659590       11.4050268252
  H        28.5031771286       21.0786170230        7.9757238671
  H        25.7497629059       19.6371493399       12.1566375916
  H        23.5673914304       19.6878547362       13.3732431414
  H        22.3006419962       16.1804722549       11.2311997262
  H        24.4848322082       16.1488302386       10.0127758987
  H        23.7028032469       17.6417084445       14.7949550574
  H        29.0193142631       21.7146825088        9.7530467759
  H        29.1610655819       21.7418915137        6.6308670216
  H        32.0753051253       18.5443610358       11.0019422122
  H        27.3990240238       19.0706991265        8.0921648001
  H        14.8475285423       19.6473474954       12.1419758472
  H        17.0096163399       19.6941616937       13.3853767866
  H        18.3043480963       16.1906923921       11.2531392170
  H        16.1383964330       16.1593710259       10.0090961067
  H        16.9219162407       17.7020295673       14.8503131068
  H        46.0917164456       15.4353532464       12.0605344649
  H        43.9648674669       15.3691487722       13.3644220721
  H        42.5436360588       18.8030520197       11.1980265688
  H        44.6714090053       18.8441732721        9.8840592971
  H        44.0184729306       17.3203851964       14.8220299812
  H        20.2897857576       17.9240301438       11.4215112906
  H        46.0379641943       15.3901344497        4.0293100960
  H        43.9083028150       15.3319536392        2.7325079666
  H        42.5238389544       18.8017474744        4.8643779033
  H        44.6597819249       18.8453395773        6.1626613774
  H        44.0059799446       17.3129115507        1.2718613636
  H        46.2000967550       26.6830113830        4.6234457147
  H        52.7414070045       21.0626968490        8.1947116357
  H        14.8813309213       19.6755982259        3.8971568166
  H        17.0821788180       19.7498807139        2.7186031482
  H        18.3394522326       16.2345223677        4.8530267583
  H        16.1408333444       16.1839703068        6.0414929219
  H        16.9444064057       17.7174581702        1.2973045895
  H        52.3229404948       21.6733923003        6.2940454705
  H        52.0136371382       21.7023980875        9.4956138030
  H        49.0684706327       18.6076944097        5.2036109836
  H        13.2480289627       19.0157539406        7.9774062854
  H        29.9512359894       12.4496634408       12.2305822241
  H        28.8803689242       10.5229058243       13.4070360285
  H        25.2485751241       11.2027224399       11.2067908184
  H        26.3362041461       13.1209776483       10.0275651014
  H        27.1540094982       11.6810408187       14.7922617243
  H        30.9854598394       22.7871238803       12.0079035689
  H        31.9884676564       24.6710465972       13.3015323901
  H        35.6896718107       24.1445650289       11.1744748932
  H        34.6647474068       22.2697411720        9.8730172170
  H        33.6449410689       23.5948079643       14.7530013885
  H        25.7051909135        8.5950667624       11.4061160255
  H        30.8919007752       22.6943657870        3.9327832905
  H        31.9036929273       24.5660818832        2.6331641092
  H        35.5518994575       24.1358391533        4.8711311241
  H        34.5228987282       22.2663927891        6.1715223263
  H        33.6002024460       23.5791553996        1.2045698806
  H        40.5937916457       17.0942301816        4.6501893630
  H        32.5072022636       14.1441690677        8.2582975443
  H        29.8945954090       12.5448044746        3.8982188725
  H        28.8657000660       10.6433652578        2.6479179875
  H        25.2208993141       11.1658483010        4.8707983388
  H        26.2716432741       13.0524434361        6.1296029102
  H        27.1508766317       11.6976773413        1.2395974705
  H        33.3085571405       14.2237711271        6.4646964747
  H        33.4071199833       14.4098485867        9.5987861666
  H        32.1213146408       18.5128613790        5.2352300767
  H        30.2169302402       14.1871323650        8.0836045052
  H        16.1179685526        2.9636189938       12.1291499031
  H        14.9529160213        4.8208255408       13.3218455533
  H        17.3677528455        7.6860789136       11.2111503023
  H        18.5163349124        5.8186052626       10.0114450599
  H        16.7537847616        5.7397470630       14.7715160586
  H        44.8272582168       32.1403797104       11.9777683261
  H        45.9366002531       30.3416013171       13.3072230890
  H        43.6837711286       27.3780959170       11.1514410536
  H        42.6009984166       29.1900349252        9.8087395123
  H        44.2302583700       29.4366725998       14.7690571427
  H        14.8521176234        8.5468491474       11.3633204424
  H        44.8992976574       32.2342229132        3.9311891485
  H        46.0242353729       30.4132281361        2.6517265789
  H        43.7651462844       27.4841431061        4.8468097547
  H        42.6472482053       29.3179559687        6.1258607326
  H        44.2684634717       29.4704592193        1.2183403527
  H        35.0126222042       26.6249926826        4.6458229993
  H        36.6055093907       35.1342089711        8.1806865562
  H        16.1432163997        3.0131443271        3.9046223865
  H        14.9737139634        4.8566092926        2.6889279433
  H        17.3974825860        7.7472664546        4.7541062776
  H        18.5444816535        5.8934527072        5.9816080793
  H        16.7648368891        5.7556179817        1.2192450512
  H        36.2791182111       34.4822556802        6.2730215063
  H        36.3818856306       34.2087316505        9.4991410569
  H        40.5800359345       33.2028084216        5.1535363011
  H        17.4712862117        1.9478746322        7.9741457168
  H        29.1226716987       19.3149030243       12.5681889208
  H        29.7220261768       19.6547164670        3.6606438907
  H        31.6731159519       15.7711786588        3.5853935327
  H        31.4438614478       15.6907859812       12.6105430430
  H        28.6722925800       17.8432480065       15.0831431177
  H        29.8596694561       15.5371455598       14.7315104679
  H        31.9022632212       19.9302233000        1.8431247861
  H        33.0918215552       17.4331269940        1.7166408361
  H        28.2075488143       16.5994214784        2.4083441957
  H        32.6972607151       18.7318854269       15.7968266462
  H        18.8551751414        0.8693383834       12.3354531683
  H        40.5281315234       35.2286254566        3.9518544810
  H        42.3249965242       34.4196765504        3.5895711890
  H        22.0876538266        0.6924047286       12.3513192269
  H        11.5971654577       18.7123851281       12.3823196657
  H        52.2653531901       18.4313213399        3.6774984109
  H        49.2552878777       16.4764359133        3.5842895380
  H        10.1502101292       15.7982960211       12.2929034531
  H        50.8505423034       17.6925548836        3.9540765896
  H        10.0461971439       17.3946618570       12.0519057713
  H        20.2170776914        0.0026382294       12.0415871030
  H        39.1839887703       36.1246742885        3.6867152377
 Ni        31.1541387790       17.9415176876        3.0790867287
 Ni        31.3709465822       16.6278055173        0.2501577523
 Ni        30.3128573995       18.9130816306        0.3273347747
 Ni        30.2226962286       17.4604640664       13.3264584106
  O        10.6499331433       14.3651280851        5.4858828240
  O        12.6131649276       14.6575114437        6.5838950402
  O        49.1478452970       16.8458100207        7.9897141520
  O        50.3503367378       20.9356647093        5.6479425009
  O        48.3485862467       20.5932722656        6.6659219648
  O        11.0518583420       17.0536517455        6.5008026809
  O        50.3209599038       20.8816596545       10.4068938198
  O        48.3466867864       20.5867151606        9.3271220538
  O        49.5438023296       18.2483530608       10.0681357347
  O        12.3592338119       18.6246500384        7.9996593899
  O        48.6932025721       14.1486759994        6.7513053066
  O         8.2099524547       14.2104445525        9.3224937187
  O        10.7353915874       14.5067809201       10.6643031784
  O        12.5718235029       14.5828312282        9.3284915648
  O        22.8445128062        2.0428906499        5.4872503853
  O        21.6059899498        3.5923696108        6.5891922666
  O        42.0583051478       34.1375536038        7.9788492179
  O        37.9811407173       33.1361382502        5.5722535346
  O        39.2173057160       31.5748467870        6.6658944168
  O        20.3084971879        1.0397044061        6.5022207990
  O        38.0245596672       33.1855479583       10.4155581045
  O        39.2184462056       31.5830006868        9.3273665565
  O        40.6523125529       33.7694133712       10.0600268387
  O        18.2556775388        1.3762961650        7.9967568543
  O        44.6222424529       35.1005465670        6.7587498336
  O        24.2054749535       -0.0000064622        9.3207168661
  O        22.7529032427        2.0574933791       10.5837200800
  O        21.6245623894        3.5959975792        9.3428481986
  O        27.4971797993       18.7545549370        5.5006719208
  O        26.7647710114       16.9345430199        6.6550662229
  O        30.6610305838       19.4051897421        8.0823150222
  O        33.5844746833       16.2757745503        5.6676807810
  O        34.2745047018       18.1678464629        6.7375549031
  O        29.5704933136       17.0595715552        6.5860122860
  O        33.5535820083       16.3386977032       10.4206301992
  O        34.3016625938       18.2376331910        9.4106726449
  O        31.6501585534       18.3156957266       10.1579169196
  O        30.3188821194       15.1530815520        8.0931541821
  O        28.5525048546       21.0331349207        6.9057426169
  O        28.5154514787       20.9539898658        9.4164154639
  O        27.4597189902       18.6797208112       10.6600334644
  O        26.6943407510       16.9296589395        9.4147146191
  O        13.1485714440       18.6929539327       10.5873252348
  O        13.9194229430       16.9163465082        9.4051691889
  O        50.5963453739       19.3501665204        8.0203465763
  O        47.6831919511       16.3268329838       10.4172531739
  O        46.9507899464       18.1756742776        9.3252058115
  O        11.0700243388       17.0154103231        9.4895208809
  O        47.6748059188       16.3360743066        5.6524035990
  O        46.9258846136       18.2360436841        6.6637910858
  O        49.5687952768       18.3176420358        5.9823334953
  O        10.3187539642       15.1001243529        7.9970842596
  O        52.6707773968       21.0278765680        9.2418056094
  O        12.1468443833       20.8911996205        6.6733011325
  O        13.1084170875       18.6135861391        5.3256303436
  O        13.9573527539       16.9871765057        6.6652841900
  O        29.9946378722       14.4438441585       10.7313906341
  O        28.0897593017       14.6536712687        9.4961243480
  O        32.1307722126       16.8508201106        8.0964754192
  O        30.9620814180       20.9486256910       10.4142223316
  O        32.9441054950       20.6062722134        9.3425670433
  O        29.5657810576       17.0752295275        9.5751076370
  O        30.8505557407       20.8894265941        5.6602114179
  O        32.8705505050       20.5868538007        6.6655135989
  O        31.6862333042       18.2527903688        6.0678494720
  O        28.2852377249       18.6737659363        8.0845064459
  O        32.4904932529       14.2135971073        9.3319766852
  O        32.4061419842       14.2130505998        6.8254166851
  O        29.9233666552       14.4387732930        5.4946172733
  O        28.0406525569       14.5886759137        6.7523308550
  O        17.8892918383        1.9666527640       10.6627718344
  O        18.9562608660        3.5271477959        9.4079321081
  O        39.1685513043       34.1387369372        7.9971731770
  O        43.2801914422       33.0589222352       10.3317355923
  O        42.0343794166       31.5064372084        9.2416206363
  O        20.3178933004        1.0370280761        9.4798185089
  O        43.2761008034       33.1826386928        5.5748692720
  O        42.0052272531       31.5841271860        6.5829574203
  O        40.5789482235       33.7750940548        5.9359244571
  O        22.3675239117        1.3848048672        7.9978655309
  O        36.6728473475       35.0997721486        9.2333255929
  O        16.4457360236        0.0642102778        6.6682253055
  O        17.9365430333        2.0433437622        5.3264297069
  O        18.9190736132        3.5931383947        6.6659098544
  O        29.8403146125       18.8177485577        4.1464419311
  O        29.8171134917       18.8364128037       12.0775062659
  O        31.2159265269       16.4117369549        4.1623958383
  O        31.2561596712       16.4863541290       12.0762908798
  O        32.2780887255       16.9295466210        1.8996338695
  O        28.2624145879       16.2736011066        1.4923487732
  O        30.6341216388       16.1069629722       14.5812324485
  O        31.8994302996       18.3246669903       15.4123625876
  O        31.0418335120       19.4826851177        1.9227070362
  O        29.3498423457       18.4623921305       14.7401392169
  O        39.4567382225       35.2438020367        4.0020055741
  O        19.1430332763        0.0050007845       11.9903316187
  O        41.9692110478       35.1723225387        4.0870071559
  O        21.6914106153       -0.0693383673       11.8959751807
  O        51.3653610627       18.6143050479        4.0054015615
  O        10.7512422048       18.7470706231       11.9049620925
  O        50.0795472233       16.4127754332        4.0918461502
  O         9.5243499341       16.4831255995       11.9912319813
 Zr         9.2979755483       16.0526442399        6.1824903825
 Zr        49.8376412646       16.0066018074        9.7463774267
 Zr        22.0737638312        0.0312034808        6.1884962186
 Zr        42.4614190763       35.1546232307        9.8008958295
 Zr        29.5958257959       19.0829289652        6.3182068474
 Zr        29.5766627262       19.1628453754        9.8851854476
 Zr        11.0390775470       19.0516733145        9.8279081776
 Zr        11.0451392719       19.1544714871        6.2507848174
 Zr        31.3316178745       16.1044810940        9.8869189256
 Zr        31.3865847417       16.0115812150        6.3118471083
 Zr        18.6019276713       -0.0000120500        9.7635097764
 Zr        18.5071620220       -0.0066874686        6.2138060268
 Zr        12.3037955280       16.3234955608        7.9902739673
 Zr        48.6176237274       18.8329894482        8.0102453858
 Zr        20.3162166458        2.4752128131        7.9903113797
 Zr        40.6440972966       32.6882860599        7.9780348712
 Zr        28.3298546108       16.3306451440        8.0780626568
 Zr        32.6275092930       18.8363976754        8.0678434518
  H        29.2139769488       16.0526550198        1.3892364375
  H        30.9047010373       15.3704942567        0.8226433656
