     566
 i =      146, E =     -4712.2143950929
  C        11.8586268784       14.0538305663        5.7416833303
  C        12.4562340912       12.8908316491        5.0231142338
  C        11.7045354114       12.1721542983        4.0813074223
  C        12.2807441809       11.1098615010        3.3888935322
  C        13.6211879076       10.7397105746        3.6167345428
  C        14.3543913079       11.4431037119        4.5903092736
  C        13.7816483823       12.5081560886        5.2818664730
  C        14.2605314672        9.6488522598        2.8433928540
  C        14.2557697481        9.6565800528        1.4216655623
  C        13.7426076603       10.7586401846        0.6676560278
  C        49.1265912544       21.2332197456        5.8798126696
  C        48.5497169984       22.4010089648        5.1525787276
  C        49.2999058123       23.0686230314        4.1718995991
  C        48.7329477617       24.1077015749        3.4386415057
  C        47.4022504362       24.5090219192        3.6669299394
  C        46.6710609102       23.8597284201        4.6799956462
  C        47.2335302261       22.8148504465        5.4093958063
  C        46.7720945924       25.5867688630        2.8696346011
  C        46.7614083807       25.5573529216        1.4478613039
  C        47.2614303947       24.4422866918        0.7043801296
  C        14.8594302377        8.5700264530        0.7084624745
  C        14.8910768210        8.5967681706        3.5200730127
  C        49.1132992546       21.2032930116       10.1452899009
  C        48.5279463299       22.3647399613       10.8724147382
  C        49.2672646579       23.0256648545       11.8651199090
  C        48.6909350329       24.0602322353       12.5965634060
  C        47.3604296167       24.4568099986       12.3585103463
  C        46.6398507996       23.8115930867       11.3353099602
  C        47.2134077314       22.7756514776       10.6035593053
  C        46.7220138790       25.5318132716       13.1495331621
  C        46.7338508570       25.5282702590       14.5712387674
  C        47.2492607987       24.4290360704       15.3276157806
  C        40.6031299982       17.1189580260       15.2960124179
  C        40.6075802693       17.1536003301       12.4846509667
  C        11.8825397425       14.0865833873       10.2853924732
  C        12.4713720402       12.9100857286       10.9892883631
  C        11.7136809563       12.1773749187       11.9156326384
  C        12.2798097391       11.0946617952       12.5840893785
  C        13.6183411172       10.7201169121       12.3519659737
  C        14.3563558238       11.4350260527       11.3907031590
  C        13.7914182876       12.5165077530       10.7180535364
  C        14.2518204589        9.6233319836       13.1225144058
  C        14.2511351058        9.6436420119       14.5443825028
  C        13.7416584858       10.7528205228       15.2913895050
  C        22.5131066377        3.2412266160        5.7566883889
  C        23.2359537977        4.3429579175        5.0615088162
  C        24.2403161828        4.0551032707        4.1259539981
  C        24.8760794237        5.0896304998        3.4452706401
  C        24.5216308185        6.4320648700        3.6818316572
  C        23.5456491380        6.7119285678        4.6550601609
  C        22.9055041996        5.6789857187        5.3342587753
  C        25.1317924544        7.5338624087        2.9051698876
  C        25.0969822896        7.5284625522        1.4844127585
  C        24.3901608083        6.5293685622        0.7430955089
  C        38.3028067919       31.9237111611        5.8425480318
  C        37.5764034147       30.8345294429        5.1246969634
  C        36.6232598184       31.1394301946        4.1395634285
  C        36.0034188603       30.1218742738        3.4181693228
  C        36.3171358510       28.7683192302        3.6567580172
  C        37.2431828908       28.4717474174        4.6763927829
  C        37.8678521758       29.4880372979        5.3965925479
  C        35.7038031480       27.6774340769        2.8618200450
  C        35.7165876216       27.6928234536        1.4365186500
  C        36.4138470061       28.6917198891        0.6899024640
  C        25.7153444944        8.5996860267        0.7629921513
  C        25.7349390853        8.6046073612        3.5744947290
  C        38.3189890922       31.9564574890       10.1528776190
  C        37.5782832939       30.8817187281       10.8788816266
  C        36.6442355483       31.1886731478       11.8817229645
  C        36.0168977863       30.1707524989       12.5986968371
  C        36.3045929957       28.8141045762       12.3411432167
  C        37.2129661121       28.5177723207       11.3049954004
  C        37.8429266247       29.5324955819       10.5885387028
  C        35.6899647701       27.7163326686       13.1281198397
  C        35.7091990226       27.7129129033       14.5542950915
  C        36.4100892177       28.7013561532       15.3111547725
  C        46.1358314717       26.6209174574       15.2813531628
  C        46.0878770781       26.5800550723       12.4734649921
  C        22.4574834649        3.2532930342       10.2583889335
  C        23.1470396299        4.3604995321       10.9871447806
  C        24.1524041082        4.0714752691       11.9232051685
  C        24.7776861490        5.0992190748       12.6245932406
  C        24.4162934455        6.4442274912       12.4114928293
  C        23.4321804274        6.7268023004       11.4456024238
  C        22.8028903306        5.6992369123       10.7442533998
  C        25.0486457105        7.5404778487       13.1853095250
  C        25.0543424444        7.5315446407       14.6078829997
  C        24.3683958541        6.5316640153       15.3665386352
  C        26.5311874627       17.8657560336        5.7975742261
  C        25.2282805041       17.9141440804        5.0819530821
  C        24.9767356865       18.9105252877        4.1236082579
  C        23.7757324115       18.9226282469        3.4209459988
  C        22.7870780335       17.9439972876        3.6533302762
  C        23.0309749041       16.9754294377        4.6466092842
  C        24.2357107011       16.9550041380        5.3461462058
  C        21.5316176059       17.9256524120        2.8662048339
  C        21.5583932201       17.9433388259        1.4428250700
  C        22.7757664259       17.8321663506        0.7030031680
  C        34.4543018494       17.1925228332        5.9443287609
  C        35.7328848541       17.1443523505        5.1895076184
  C        35.9205815099       16.1942054312        4.1716855368
  C        37.0952939635       16.1858643649        3.4251591906
  C        38.1198246056       17.1213519704        3.6760885190
  C        37.9334567306       18.0499773082        4.7196519388
  C        36.7546890141       18.0689463138        5.4605829137
  C        39.3695196605       17.1323546228        2.8819067266
  C        39.3575160346       17.1447686437        1.4579204008
  C        38.1493382204       17.2782426945        0.7060066222
  C        20.3248946020       17.9801917378        0.7128244146
  C        20.2959614861       17.8987821975        3.5259497585
  C        34.4063287182       17.2483904876       10.1905550246
  C        35.7076957177       17.1736630133       10.9026806176
  C        35.9100266462       16.2160929877       11.9107051317
  C        37.1014739524       16.1943712575       12.6292128075
  C        38.1255434855       17.1269956673       12.3643265067
  C        37.9280878565       18.0562521394       11.3233948311
  C        36.7345209818       18.0859209956       10.6073740493
  C        39.3770838417       17.1436998336       13.1541036425
  C        39.3617464967       17.1519530799       14.5782967093
  C        38.1514424412       17.2818131097       15.3279911462
  C        35.0830954298       26.6352967138       15.2667607629
  C        35.0874352056       26.6458942306       12.4536468715
  C        26.6791945580       17.8642832634       10.3934192129
  C        25.3764847975       17.9729847759       11.0823008073
  C        25.1404538717       18.9375843061       12.0783585890
  C        23.9055905191       18.9946911801       12.7190679128
  C        22.8680730341       18.0915394634       12.3949082828
  C        23.0990720642       17.1651632183       11.3583557142
  C        24.3305276694       17.1019599060       10.7176628745
  C        21.5908993489       18.0674020208       13.1418751238
  C        21.5872858654       18.0159159006       14.5654754844
  C        22.7884825433       17.8649486887       15.3263618946
  C        14.0580234397       17.8426390689       10.2762887470
  C        15.3810319132       17.9359441231       10.9692722005
  C        15.6405518977       18.9594480451       11.8950865068
  C        16.8620150079       19.0125316458       12.5650666794
  C        17.8626185667       18.0461331256       12.3339909173
  C        17.6104323721       17.0515854386       11.3696512988
  C        16.3878960824       16.9940452092       10.7003181482
  C        19.1297909960       18.0438468391       13.1123468022
  C        19.1039613652       18.0106813214       14.5371126892
  C        17.8859183400       17.8845609591       15.2739524355
  C        46.7983656035       17.2160849549       10.1551695699
  C        45.4994022318       17.1486318788       10.8874282659
  C        45.2828858513       16.1693210163       11.8697958524
  C        44.0946478406       16.1504055380       12.5962226732
  C        43.0890065748       17.1104956784       12.3651255199
  C        43.3010821769       18.0658542209       11.3519289944
  C        44.4901348080       18.0888912142       10.6263298259
  C        41.8356363746       17.1286886378       13.1563336736
  C        41.8470092348       17.1260918067       14.5805758587
  C        43.0584386986       17.2167635368       15.3335649607
  C        20.3383764517       18.0146540506       15.2674646224
  C        20.3662826105       18.0558145749       12.4537624658
  C        46.7833112223       17.2338135908        5.8823980489
  C        45.4834943891       17.1329074248        5.1574687445
  C        45.2699996582       16.1447498380        4.1832999596
  C        44.0838066755       16.1201422709        3.4529379591
  C        43.0764464488       17.0798107933        3.6775651182
  C        43.2821864302       18.0389469393        4.6881164405
  C        44.4696702516       18.0705998208        5.4131893768
  C        41.8266749050       17.1012081260        2.8836682520
  C        41.8427145457       17.1106122387        1.4601885760
  C        43.0565185386       17.2078242266        0.7116948916
  C        46.1534903567       26.6372940217        0.7261126625
  C        46.1619033319       26.6557491138        3.5357655533
  C        14.0378895523       17.8225432166        5.6981139789
  C        15.3431386151       17.8788210170        4.9786999637
  C        15.6023072746       18.8878251012        4.0387535297
  C        16.8185917957       18.9186719111        3.3612735330
  C        17.8044932216       17.9397774558        3.5987408517
  C        17.5483058250       16.9532844178        4.5692390921
  C        16.3337320058       16.9217206386        5.2498901174
  C        19.0757205356       17.9308779286        2.8389047605
  C        19.0767725493       17.9510498658        1.4158684424
  C        17.8725588788       17.8574390572        0.6515131660
  C        28.7312154864       14.0714668812       10.3663035521
  C        28.1366217327       12.9004627713       11.0526401698
  C        28.8691557966       12.1857196622       12.0133201667
  C        28.2828725090       11.1129072123       12.6770779463
  C        26.9523164036       10.7329457026       12.4064541663
  C        26.2437619635       11.4271819844       11.4086887614
  C        26.8260950595       12.5005569586       10.7423077741
  C        26.2957430366        9.6547937060       13.1764129895
  C        26.2980364494        9.6793695944       14.5976498448
  C        26.8038070150       10.7921447667       15.3417363469
  C        32.0641769487       21.1724814081       10.2279221484
  C        32.6453583752       22.3483368359       10.9213303066
  C        31.9369954569       22.9995103187       11.9466427662
  C        32.5150544654       24.0592051239       12.6382767718
  C        33.8207315136       24.5022296018       12.3366172164
  C        34.5028977281       23.8737466058       11.2742853538
  C        33.9293346790       22.8110648032       10.5813110413
  C        34.4698505054       25.5780510923       13.1197459770
  C        34.4856581074       25.5488821876       14.5455055018
  C        34.0074905143       24.4276293810       15.2914633043
  C        25.6970628744        8.5982920797       15.3187042636
  C        25.6548539041        8.6047706202       12.5063426685
  C        32.0924639567       21.2052678204        5.8688989148
  C        32.6630837895       22.3575740574        5.1230826926
  C        31.9436863957       22.9893866196        4.0946807804
  C        32.5220496856       24.0255441363        3.3648496662
  C        33.8344694401       24.4661918708        3.6380851252
  C        34.5323352324       23.8481635967        4.6959590247
  C        33.9617018480       22.8067034763        5.4211910600
  C        34.4780406794       25.5439709577        2.8512378848
  C        34.4880044449       25.5321482181        1.4260617017
  C        34.0063026172       24.4202834878        0.6696467834
  C        40.6007458050       17.1130423625        0.7423834455
  C        40.5980465120       17.1303127515        3.5539188751
  C        28.7517026807       14.0409674179        5.8263576123
  C        28.1539872679       12.8861592028        5.1049462345
  C        28.8843814976       12.2180581510        4.1093166482
  C        28.3079133235       11.1642909559        3.4061823187
  C        26.9860390380       10.7532746905        3.6723646352
  C        26.2759151238       11.4064174904        4.6979475649
  C        26.8493492670       12.4611936701        5.4033731650
  C        26.3440018702        9.6678441067        2.8958284348
  C        26.3243571320        9.6858693298        1.4739675823
  C        26.8148795821       10.7963629357        0.7180016960
  C        18.1349009304        3.1801306345       10.3170444306
  C        17.4050506893        4.2772801442       11.0155127921
  C        16.3902803384        3.9985792785       11.9439585944
  C        15.7421845311        5.0383369880       12.6074786247
  C        16.0926799874        6.3822696023       12.3668969418
  C        17.0808937829        6.6520896976       11.4019886438
  C        17.7303208489        5.6149677708       10.7369150469
  C        15.4682775369        7.4899113402       13.1299535541
  C        15.4840555102        7.4895686531       14.5516782752
  C        16.1859075585        6.4962057508       15.3049108905
  C        42.9456189378       31.8591891091       10.0727981875
  C        43.6460455184       30.7716286284       10.8166414923
  C        44.5919249293       31.0929789650       11.8024031235
  C        45.1976871156       30.0874726301       12.5500411933
  C        44.8709747781       28.7344118601       12.3355207800
  C        43.9447250366       28.4200519373       11.3227024941
  C        43.3357728237       29.4251502536       10.5747035543
  C        45.4887163410       27.6552097738       13.1387309133
  C        45.4930381642       27.6809858691       14.5604221726
  C        44.8058481152       28.6889793284       15.3070278017
  C        14.8553056203        8.5622322879       15.2639986732
  C        14.8726396614        8.5614909864       12.4513332674
  C        42.9462836550       31.9611604503        5.8090482703
  C        43.6913587152       30.8851215261        5.0955044725
  C        44.6562264015       31.1910213973        4.1234433145
  C        45.2776687789       30.1714506116        3.4056639269
  C        44.9535687401       28.8211348410        3.6429632593
  C        44.0196605091       28.5234767668        4.6533571318
  C        43.3914164836       29.5402260337        5.3655746395
  C        45.5627453894       27.7238239786        2.8577043288
  C        45.5333591823       27.7173614282        1.4363986853
  C        44.8270242752       28.7075729091        0.6834282113
  C        35.0855978971       26.6258303118        0.7142279941
  C        35.1017670411       26.6021052180        3.5266741348
  C        18.1482629215        3.2464629490        5.7067514148
  C        17.4293089435        4.3433776465        4.9976192439
  C        16.4148684253        4.0520221208        4.0732372664
  C        15.7664585142        5.0825801370        3.3977807683
  C        16.1201838813        6.4279678842        3.6211679626
  C        17.1105739920        6.7114120457        4.5794612443
  C        17.7582903040        5.6825665101        5.2593118724
  C        15.4898253340        7.5236802138        2.8485979827
  C        15.4956885395        7.5069748737        1.4274373874
  C        16.1923897066        6.5052391319        0.6807264111
  H        10.6724789554       12.4665585412        3.9042546440
  H        11.6943321461       10.5515637127        2.6623072494
  H        15.3913185878       11.1681992946        4.7721554348
  H        14.3510052692       13.0712105373        6.0175243683
  H        13.3757831582       11.6308934620        1.2008947766
  H        50.3227180622       22.7487667604        3.9874180460
  H        49.3194844097       24.6231547962        2.6812313808
  H        45.6413543156       24.1600500358        4.8627252657
  H        46.6622856002       22.2891594590        6.1710163849
  H        47.6297323213       23.5758036677        1.2460682934
  H        14.8712189962        8.5880415152        4.6083795507
  H        50.2873599479       22.7028916131       12.0598935413
  H        49.2693398399       24.5758026756       13.3599793801
  H        45.6102820075       24.1084803227       11.1465572485
  H        46.6523869536       22.2531523875        9.8323619528
  H        47.6078845641       23.5518487959       14.7967164833
  H        40.6089891267       17.1219997930       11.3966392212
  H        48.6865761260       14.0953474683        7.7996492127
  H        10.6804410592       12.4671377188       12.0933077022
  H        11.6878321608       10.5247638281       13.2970353713
  H        15.3915556518       11.1564793830       11.2044791461
  H        14.3638568979       13.0855944198        9.9893765784
  H        13.3746938433       11.6213259617       14.7526621864
  H        47.9297518021       14.2197666442        9.7108739490
  H        47.7801216335       14.3751209900        6.4946789801
  H        49.0813225865       18.5509299348       10.8666845491
  H        10.4154463568       14.1344525287        7.9990972832
  H        24.4988812851        3.0146465566        3.9424562914
  H        25.6545940430        4.8682265160        2.7184002430
  H        23.2658263367        7.7466838078        4.8414208808
  H        22.1290147822        5.8828931043        6.0674863137
  H        23.8345193414        5.7710932935        1.2870155003
  H        36.3902983763       32.1831605977        3.9419483899
  H        35.2635358258       30.3678684329        2.6596189269
  H        37.4984277242       27.4320104897        4.8708255295
  H        38.6060107100       29.2603157434        6.1621545582
  H        36.9863881809       29.4419354780        1.2275528548
  H        25.7757680799        8.5840998304        4.6619912511
  H        36.4305313029       32.2328811021       12.0989184992
  H        35.2909938658       30.4207906401       13.3693527891
  H        37.4509266275       27.4771505422       11.0941459795
  H        38.5666619839       29.3015470854        9.8104584947
  H        36.9805036604       29.4588818970       14.7815794771
  H        46.1089890362       26.5872491639       11.3854198843
  H        44.6679090866       35.1157974508        7.8139870138
  H        24.4344851240        3.0330751091       12.0816998359
  H        25.5622903681        4.8694900068       13.3423477606
  H        23.1416464034        7.7613373661       11.2744433274
  H        22.0276425509        5.9126223720       10.0119694100
  H        23.7954377912        5.7756357016       14.8374802449
  H        44.9528301570       34.3893862791        9.6944625087
  H        44.9008138505       34.2062556437        6.4907487154
  H        40.6624175019       33.2058745892       10.8514931703
  H        23.1504560000        1.9560929569        8.0064822795
  H        25.7341630623       19.6691784261        3.9418477142
  H        23.5868066677       19.6983181017        2.6821225661
  H        22.2790076581       16.2120728598        4.8357505372
  H        24.4364981774       16.1880342432        6.0903612968
  H        23.7065456930       17.6836268510        1.2427627128
  H        35.1290323624       15.4759948129        3.9709571631
  H        37.2359048426       15.4430997837        2.6430297873
  H        38.7130399479       18.7822485827        4.9193048981
  H        36.5985552797       18.8047548541        6.2460131543
  H        37.2128085850       17.4140670627        1.2392709212
  H        20.2824898030       17.9115736235        4.6143847870
  H        35.1128922302       15.5099066044       12.1317097769
  H        37.2523838562       15.4486689686       13.4065601595
  H        38.7083796246       18.7841007366       11.1106543603
  H        36.5678788726       18.8249024025        9.8271777319
  H        37.2161272297       17.4198542566       14.7932439637
  H        35.0484102353       26.6730338695       11.3660810346
  H        28.4785806729       21.1384815730        7.9111773736
  H        25.9337010973       19.6370909642       12.3331193353
  H        23.7284851496       19.7474720849       13.4840754070
  H        22.3128152219       16.4609534531       11.0943020023
  H        24.5140985714       16.3657590506        9.9396532333
  H        23.7298106719       17.7385638200       14.8004028366
  H        28.9152355326       21.7347718774        9.7444549631
  H        29.0731076033       21.8438947037        6.5385649022
  H        32.0213457535       18.5378711483       11.0424626969
  H        27.3828124418       19.0481695301        7.9966226487
  H        14.8720148231       19.7071513030       12.0781995650
  H        17.0528572877       19.8089266836       13.2813622107
  H        18.3701011621       16.2961967408       11.1789030890
  H        16.1844978826       16.2096274881        9.9749608852
  H        16.9531930416       17.7780586586       14.7280393356
  H        46.0638175687       15.4365328597       12.0594004074
  H        43.9316739806       15.3838825992       13.3507127873
  H        42.5352696969       18.8160151972       11.1655330632
  H        44.6675486419       18.8435873876        9.8636258634
  H        43.9983423446       17.3272762544       14.8004709046
  H        20.3773908417       18.1091167854       11.3663659795
  H        46.0491192803       15.4079623092        4.0010821335
  H        43.9241203010       15.3506743065        2.7007100280
  H        42.5130434444       18.7868031297        4.8697346408
  H        44.6451572296       18.8311333192        6.1701768406
  H        43.9949151394       17.3111601101        1.2487718708
  H        46.1983434886       26.6820530779        4.6232330788
  H        52.7408568275       21.0623784551        8.1946793873
  H        14.8419312389       19.6447786926        3.8599410420
  H        17.0211412062       19.7088375082        2.6415455227
  H        18.2996720471       16.1891160686        4.7573194654
  H        16.1220473121       16.1500171848        5.9861069055
  H        16.9297696303       17.7294675191        1.1750880814
  H        52.3212592989       21.6728457502        6.2948323795
  H        52.0114951997       21.7007390573        9.4953143686
  H        49.0674495148       18.6075730025        5.2045247070
  H        13.2473283057       19.0166182029        7.9724072391
  H        29.8911097828       12.4879876547       12.2307985829
  H        28.8502933334       10.5572651824       13.4203245754
  H        25.2160716240       11.1420714196       11.1936298180
  H        26.2738754290       13.0594683701        9.9911295680
  H        27.1568572563       11.6662551251       14.8029504315
  H        30.9384963026       22.6514880487       12.2000902961
  H        31.9566857970       24.5584395336       13.4269175757
  H        35.5111527543       24.2004623887       11.0279939012
  H        34.4713373427       22.3058417159        9.7853178251
  H        33.6672298937       23.5468126415       14.7549929348
  H        25.6754241805        8.5869640774       11.4181560585
  H        30.9372950276       22.6452568943        3.8668529811
  H        31.9550300329       24.5109623651        2.5736556306
  H        35.5477356604       24.1704454373        4.9171956582
  H        34.5143620385       22.3108981277        6.2155649480
  H        33.6643490144       23.5346816300        1.1975694323
  H        40.5974034212       17.0939334165        4.6417370689
  H        32.5200342105       14.1116370248        8.2938353005
  H        29.9015009039       12.5412724194        3.9005270269
  H        28.8806693108       10.6432564296        2.6422032423
  H        25.2537026550       11.1001944053        4.9102198795
  H        26.2942096144       12.9840399676        6.1783631362
  H        27.1753511592       11.6736731329        1.2472578296
  H        33.3420636137       14.0847803888        6.4628227535
  H        33.3984258513       14.4187676973        9.6271924557
  H        32.0043087438       18.3923824919        5.1190876060
  H        30.1518756577       14.1894734482        8.0496025624
  H        16.1192799962        2.9619253384       12.1311127939
  H        14.9534494193        4.8185657998       13.3238105324
  H        17.3619529683        7.6851536484       11.2078876585
  H        18.5112563873        5.8178458994       10.0079534149
  H        16.7523308684        5.7387361380       14.7714585652
  H        44.8283863989       32.1400456796       11.9763854468
  H        45.9377184880       30.3411833659       13.3058351873
  H        43.6815927636       27.3780219835       11.1530086541
  H        42.5986140291       29.1897263382        9.8105800404
  H        44.2302552243       29.4365688846       14.7687226788
  H        14.8483545934        8.5444122523       11.3631269655
  H        44.8999791395       32.2336877486        3.9322154469
  H        46.0247133845       30.4126042872        2.6525446837
  H        43.7622347665       27.4837814529        4.8445006502
  H        42.6444609393       29.3173754693        6.1235668888
  H        44.2681881220       29.4702460595        1.2179810466
  H        35.0681718165       26.6177367899        4.6145669272
  H        36.6049199375       35.1330527160        8.1811490640
  H        16.1444619480        3.0123624195        3.9028868852
  H        14.9747047772        4.8555033158        2.6871281454
  H        17.3931210118        7.7469980758        4.7571923406
  H        18.5402519669        5.8931062863        5.9850298757
  H        16.7638733074        5.7550212171        1.2191375290
  H        36.2786194351       34.4811739421        6.2734246491
  H        36.3811217337       34.2088400680        9.5009634830
  H        40.5785138641       33.2006461050        5.1542241399
  H        17.4708748855        1.9451519395        7.9739972099
  H        28.7256179337       18.8481514943        3.7769226106
  H        31.5575722039       15.7173232854        3.6094854437
  H        30.9855223320       15.4054148469       12.4795512628
  H        28.8293832651       18.7242705780       14.3353576466
  H        29.3923894451       15.2474038193       14.6340740660
  H        32.4848204444       17.2987074662        1.4448651380
  H        18.8531882633        0.8687243963       12.3350795575
  H        40.5279297444       35.2292984295        3.9523956228
  H        42.3217172188       34.4167515489        3.5918026069
  H        22.0876016270        0.6924290635       12.3508340240
  H        11.5972153900       18.7120546381       12.3828209936
  H        52.2652014802       18.4312612814        3.6789843654
  H        49.2543967613       16.4776851845        3.5856829115
  H        10.1500318349       15.7981814415       12.2925742679
  H        50.8500023930       17.6926203536        3.9540439977
  H        10.0456878330       17.3943956954       12.0520263925
  H        20.2145176532        0.0016776304       12.0421265372
  H        39.1833059592       36.1245290796        3.6871593036
 Ni        30.6076542995       17.7188461420        2.8306758986
 Ni        30.9427709633       16.2521944833        0.0807360705
 Ni        30.1402822917       18.4307682353        0.3330810877
 Ni        30.5219534452       17.2825618258       13.6551251568
  O        10.6499189264       14.3651183020        5.4858221986
  O        12.6132314559       14.6575499602        6.5840253674
  O        49.1477199605       16.8459233288        7.9898070643
  O        50.3501752654       20.9361045630        5.6483236251
  O        48.3485033575       20.5932486935        6.6660277566
  O        11.0521051810       17.0531412784        6.5007927832
  O        50.3212095086       20.8816538745       10.4068160362
  O        48.3468078558       20.5867287811        9.3271098761
  O        49.5437793710       18.2483262731       10.0684437646
  O        12.3592025882       18.6244520071        8.0001211042
  O        48.6930343704       14.1487700629        6.7511078381
  O         8.2096384073       14.2106525705        9.3227843135
  O        10.7351595589       14.5067958883       10.6643609657
  O        12.5718964758       14.5828744586        9.3286627082
  O        22.8441465583        2.0407922685        5.4880277037
  O        21.6053802987        3.5919977819        6.5899416650
  O        42.0572503796       34.1362401044        7.9790079519
  O        37.9814824456       33.1338557659        5.5712050709
  O        39.2167622400       31.5739537389        6.6647806409
  O        20.3079534946        1.0388760498        6.5017066646
  O        38.0226853753       33.1823447916       10.4163837698
  O        39.2173055060       31.5822037055        9.3284142997
  O        40.6519614996       33.7687425385       10.0603300871
  O        18.2559357436        1.3744759002        7.9968246140
  O        44.6222788670       35.1004021634        6.7587265428
  O        24.2053275618       -0.0000530761        9.3208731902
  O        22.7526277576        2.0561297183       10.5833334648
  O        21.6237743725        3.5953477149        9.3422584831
  O        27.4129058913       18.7549868532        5.4998078903
  O        26.6937863597       16.9290537625        6.6617821221
  O        30.6242728445       19.3480996936        8.0067097826
  O        33.6015943862       16.2621665026        5.7437185168
  O        34.2711061739       18.1789135045        6.7423669837
  O        29.4452960601       16.9914233460        6.4012391173
  O        33.5415491180       16.3340819001       10.4144210925
  O        34.2202116820       18.2500707512        9.4094128980
  O        31.5311121614       18.2555220011       10.2505627132
  O        30.2638421822       15.1541809276        8.0816322529
  O        28.5118964041       21.1020333797        6.8276623839
  O        28.5110007259       20.9580308090        9.3227927979
  O        27.6649821490       18.6137893877       10.7453462364
  O        26.7319392089       17.0070449420        9.4277234511
  O        13.1511713268       18.6933113950       10.5871616294
  O        13.9227352007       16.9172535595        9.4067049069
  O        50.5958104997       19.3499898238        8.0218001359
  O        47.6795988669       16.3278778892       10.4179971531
  O        46.9511688026       18.1760923279        9.3248096016
  O        11.0695641663       17.0153716614        9.4896448691
  O        47.6744814497       16.3362478586        5.6517591659
  O        46.9246731927       18.2356439386        6.6626168042
  O        49.5689184721       18.3176813935        5.9826273168
  O        10.3188497418       15.1003692819        7.9972198461
  O        52.6706974473       21.0279646736        9.2419083701
  O        12.1467557268       20.8911682109        6.6733629829
  O        13.1045077103       18.6139960838        5.3255999720
  O        13.9571396986       16.9873668109        6.6639342743
  O        29.9171941354       14.4305673574       10.6631562943
  O        27.9943770172       14.6565978995        9.4893379875
  O        32.0633857503       16.8632879610        8.0837944913
  O        30.8735036225       20.8010063800       10.5724558274
  O        32.7795489948       20.5915122181        9.3398678915
  O        29.5534666170       17.0723210913        9.4862924920
  O        30.8548425830       20.8973288040        5.6565498057
  O        32.8683966008       20.5830263675        6.6663066398
  O        31.6052296284       18.2506124648        5.9988436105
  O        28.2821667169       18.6792028645        7.9976213623
  O        32.4880566607       14.2107062688        9.3449208368
  O        32.4414645591       14.1455610357        6.8222171880
  O        29.9175697980       14.4321636411        5.4947543364
  O        28.0330453555       14.5873585849        6.7472253147
  O        17.8889123758        1.9659616458       10.6627887833
  O        18.9560016242        3.5267987459        9.4080886797
  O        39.1684152813       34.1380306395        7.9973248424
  O        43.2801952771       33.0587720091       10.3315781810
  O        42.0342745427       31.5064126999        9.2415582507
  O        20.3168224575        1.0355375077        9.4807147624
  O        43.2760696345       33.1823432580        5.5749169361
  O        42.0051976517       31.5840515239        6.5831085811
  O        40.5787168965       33.7743848560        5.9356204431
  O        22.3666676299        1.3839185708        7.9980729479
  O        36.6727643666       35.0994020216        9.2336035232
  O        16.4453573938        0.0635028980        6.6680878838
  O        17.9363233849        2.0430708874        5.3264187255
  O        18.9189272018        3.5929981656        6.6659739131
  O        29.6211150456       18.7584406445        4.1510968886
  O        31.3025982204       16.4064917607        4.2512317977
  O        31.2210000063       16.2633455424       12.0679068660
  O        31.7420238120       16.7060402582        1.6707828000
  O        30.3359035324       15.4643222268       14.5156618926
  O        29.7884097625       18.7653687487       14.5063110552
  O        39.4567569343       35.2437689817        4.0020139330
  O        19.1412260230        0.0042162637       11.9906342058
  O        41.9696588638       35.1725564977        4.0872150544
  O        21.6912494969       -0.0693602357       11.8958672716
  O        51.3647978227       18.6144136311        4.0054810325
  O        10.7515442579       18.7471501496       11.9050885149
  O        50.0795523309       16.4127366858        4.0917668411
  O         9.5241727758       16.4830830203       11.9911915010
 Zr         9.2960135608       16.0530272148        6.1822884948
 Zr        49.8349933612       16.0072801817        9.7465668083
 Zr        22.0723021857        0.0275317907        6.1896613754
 Zr        42.4600375753       35.1511172429        9.8004710156
 Zr        29.5631067791       19.2036203158        6.2099731047
 Zr        29.5749794641       19.1684216963        9.7457999644
 Zr        11.0383214148       19.0515253918        9.8283553228
 Zr        11.0428873211       19.1546504108        6.2521392930
 Zr        31.3071028979       16.0634839403        9.9528553682
 Zr        31.4783860726       15.9413784280        6.3002478119
 Zr        18.6002633379       -0.0043304332        9.7643016377
 Zr        18.5055161076       -0.0105323900        6.2132033923
 Zr        12.3022573175       16.3239184188        7.9914120982
 Zr        48.6145907409       18.8325828173        8.0103359631
 Zr        20.3132763401        2.4706793115        7.9904841392
 Zr        40.6408084366       32.6841637726        7.9784249384
 Zr        28.2637626550       16.2883646752        8.1195924609
 Zr        32.6254524775       18.8142444153        8.0201893413
  H        29.5711234190       18.3333796170        1.7568049303
  H        29.0786638002       16.6973315295        5.5432528082
