     571
 i =       90, E =     -4761.6298950507
  C        11.8586535028       14.0536293755        5.7415807656
  C        12.4561678616       12.8905665147        5.0232905262
  C        11.7044663671       12.1716900047        4.0816211368
  C        12.2807881851       11.1094498875        3.3892517447
  C        13.6213365404       10.7396228572        3.6170255064
  C        14.3545257569       11.4431276492        4.5905151569
  C        13.7816688511       12.5081407532        5.2820080591
  C        14.2609032978        9.6489678528        2.8436288156
  C        14.2563508182        9.6569112130        1.4219200959
  C        13.7431850611       10.7590346876        0.6680110029
  C        49.1266121628       21.2332566923        5.8797268093
  C        48.5497577418       22.4011244466        5.1525761410
  C        49.2999283804       23.0687392844        4.1718894291
  C        48.7329739134       24.1078445207        3.4386627269
  C        47.4022870267       24.5091516074        3.6669917040
  C        46.6711164326       23.8598963320        4.6800901028
  C        47.2336086709       22.8150238652        5.4094752387
  C        46.7720929237       25.5869001744        2.8697223587
  C        46.7612604894       25.5574165316        1.4479539005
  C        47.2612602412       24.4423488600        0.7044672991
  C        14.8603409262        8.5705955296        0.7086564172
  C        14.8916215753        8.5969768226        3.5202636391
  C        49.1130172245       21.2033845253       10.1453733945
  C        48.5275824617       22.3647291305       10.8725405203
  C        49.2670177449       23.0259078323       11.8649878585
  C        48.6906453248       24.0604359882       12.5964536965
  C        47.3600200283       24.4567258065       12.3586305349
  C        46.6393160362       23.8112526095       11.3356879418
  C        47.2129116880       22.7753526061       10.6039118030
  C        46.7216025770       25.5317398371       13.1496435360
  C        46.7334904954       25.5282356424       14.5713429597
  C        47.2490075499       24.4290515853       15.3277072535
  C        40.6201595065       17.1153659436       15.3111321512
  C        40.6309688626       17.1148596227       12.5014215617
  C        11.8828823763       14.0866375923       10.2854229655
  C        12.4722250569       12.9107095016       10.9896861633
  C        11.7146834908       12.1775020373       11.9157460288
  C        12.2812435330       11.0950253996       12.5841904612
  C        13.6200677723       10.7213223351       12.3524280684
  C        14.3580696094       11.4368866973       11.3916544181
  C        13.7926566370       12.5180646035       10.7189435087
  C        14.2536772388        9.6245544442       13.1228421236
  C        14.2525380709        9.6445653000       14.5446877144
  C        13.7426464545       10.7535111200       15.2917542238
  C        22.5099920538        3.2455904740        5.7528928988
  C        23.2183848787        4.3558918815        5.0535378140
  C        24.2190570435        4.0856909199        4.1085518257
  C        24.8377139141        5.1317922958        3.4283850084
  C        24.4710777171        6.4704411744        3.6725426884
  C        23.4985757220        6.7322987894        4.6545873191
  C        22.8758038196        5.6881574004        5.3333299961
  C        25.0679941524        7.5822442208        2.8973019171
  C        25.0466260340        7.5706828916        1.4756642462
  C        24.3497001522        6.5669023036        0.7304450313
  C        38.2974695321       31.9279170507        5.8520931430
  C        37.5542681457       30.8403865558        5.1510887413
  C        36.5864796152       31.1497021454        4.1826962323
  C        35.9534897744       30.1336662367        3.4718563169
  C        36.2727915992       28.7815803361        3.7054773183
  C        37.2101327780       28.4796314924        4.7116145697
  C        37.8469085093       29.4947068532        5.4222693102
  C        35.6600984810       27.6953844247        2.9055900824
  C        35.6975881920       27.7122805756        1.4837400883
  C        36.4093703559       28.7141316122        0.7511964864
  C        25.6698082567        8.6394589735        0.7542607041
  C        25.6521742901        8.6654570381        3.5669942426
  C        38.3301635016       31.9611031456       10.1602163091
  C        37.6121324127       30.8895479352       10.9097532422
  C        36.6772906171       31.2016440013       11.9091008277
  C        36.0649182599       30.1865897083       12.6421309283
  C        36.3724037224       28.8324196101       12.4006520986
  C        37.2885452472       28.5302013373       11.3742067673
  C        37.9025209471       29.5418078057       10.6419483509
  C        35.7546528920       27.7357373635       13.1825485642
  C        35.7459297486       27.7329357937       14.6051463008
  C        36.4310609691       28.7249861798       15.3745853006
  C        46.1354951483       26.6208908024       15.2814565789
  C        46.0875141116       26.5799906796       12.4735660945
  C        22.4596533595        3.2561360367       10.2586407056
  C        23.1505781272        4.3661001312       10.9836040719
  C        24.1496002476        4.0821330072       11.9282579164
  C        24.7742812029        5.1137250511       12.6253625478
  C        24.4206392458        6.4591586413       12.3997869374
  C        23.4444079354        6.7363472948       11.4240161219
  C        22.8147526640        5.7049910453       10.7279476985
  C        25.0490098319        7.5593515142       13.1735079463
  C        25.0377402310        7.5577431520       14.5962992620
  C        24.3426589133        6.5625543799       15.3536340711
  C        26.6191619511       17.8652307540        5.7482208805
  C        25.3150954325       17.9248427368        5.0267376527
  C        25.0711617426       18.9014178369        4.0487882339
  C        23.8524221482       18.9304477490        3.3743312136
  C        22.8457140045       17.9828593391        3.6509095131
  C        23.0872350259       17.0302081460        4.6588949909
  C        24.3046166746       16.9988591634        5.3352026952
  C        21.5724314452       17.9661849409        2.8897719246
  C        21.5733683153       17.9314344211        1.4675904515
  C        22.7783561615       17.7908660187        0.7087954751
  C        34.4412690648       17.1950575459        5.9222241254
  C        35.7327140988       17.1467153149        5.1787891101
  C        35.9195521549       16.2033930754        4.1562858789
  C        37.0994652370       16.1926298055        3.4180340529
  C        38.1232372960       17.1242459547        3.6798789805
  C        37.9374285486       18.0475378854        4.7270679762
  C        36.7555824001       18.0640018179        5.4638084371
  C        39.3752546223       17.1358996839        2.8898709027
  C        39.3679058021       17.1525532391        1.4675343556
  C        38.1607929811       17.2866046038        0.7116616421
  C        20.3266122314       17.9502833574        0.7599395500
  C        20.3479671099       17.9730205611        3.5729059419
  C        34.4407176195       17.2367586806       10.1916772370
  C        35.7413010024       17.1377526407       10.9123678611
  C        35.9411200815       16.1738683956       11.9118905595
  C        37.1312792944       16.1495970143       12.6348120454
  C        38.1511620969       17.0868699456       12.3772814799
  C        37.9578450241       18.0215594293       11.3426286362
  C        36.7667940239       18.0522790559       10.6241377760
  C        39.4007781059       17.1091976452       13.1694371861
  C        39.3810365714       17.1382867617       14.5907840734
  C        38.1669297606       17.2773462825       15.3347293203
  C        35.1060680336       26.6559418333       15.3048785745
  C        35.1715686923       26.6633013873       12.4953137837
  C        26.5708840606       17.8303955542       10.3266730421
  C        25.2558969331       17.8745657353       11.0304498814
  C        24.9898310620       18.8791327209       11.9730567497
  C        23.7715336278       18.9032361556       12.6455652664
  C        22.7895385607       17.9232353690       12.3980821148
  C        23.0494947897       16.9437729136       11.4226049517
  C        24.2690245769       16.9171057469       10.7490208218
  C        21.5253228008       17.9057077296       13.1695019632
  C        21.5485257912       17.8997015330       14.5908184813
  C        22.7659500084       17.7764756078       15.3325956667
  C        14.0457135538       17.8297206171       10.2871894020
  C        15.3503230938       17.8888135962       11.0103684070
  C        15.6082933502       18.8966452877       11.9524715890
  C        16.8175858492       18.9193206289       12.6442389713
  C        17.8018655632       17.9367635985       12.4155050457
  C        17.5488590431       16.9532663010       11.4408117976
  C        16.3391687737       16.9262672017       10.7504245865
  C        19.0700419164       17.9202369546       13.1843989322
  C        19.0675772073       17.9233698692       14.6067114196
  C        17.8600196511       17.8317515923       15.3680485677
  C        46.8023395735       17.2167087807       10.1574294779
  C        45.5092427922       17.1486322908       10.8982937290
  C        45.3057187603       16.1716752412       11.8854315864
  C        44.1218174751       16.1475081404       12.6181436304
  C        43.1100775558       17.1000628183       12.3866287719
  C        43.3101632463       18.0550807975       11.3712127749
  C        44.4949923733       18.0834407463       10.6394941118
  C        41.8570188328       17.1096511992       13.1769236309
  C        41.8654651773       17.1204117934       14.5992438669
  C        43.0757910458       17.2190327746       15.3552454182
  C        20.3138276557       17.9334860590       15.3152388348
  C        20.2939664818       17.8953901458       12.5022480411
  C        46.7849480131       17.2324800798        5.8864596282
  C        45.4833534284       17.1297562225        5.1670067317
  C        45.2656834273       16.1347775086        4.2016635551
  C        44.0782335532       16.1099658020        3.4740417238
  C        43.0780707339       17.0772209418        3.6937773600
  C        43.2867644411       18.0425714094        4.6967097051
  C        44.4751187794       18.0737060033        5.4196221466
  C        41.8304910645       17.1009234565        2.8981857671
  C        41.8520144795       17.1147733852        1.4769047723
  C        43.0694359451       17.2132453390        0.7323068866
  C        46.1532777986       26.6373180857        0.7262101707
  C        46.1620741677       26.6559690976        3.5358573897
  C        14.0452794553       17.8338892978        5.7091026965
  C        15.3659853711       17.9147936975        5.0182702276
  C        15.6327824895       18.9331676362        4.0907834221
  C        16.8601270732       18.9779753021        3.4332111088
  C        17.8487902210       18.0036985253        3.6775047876
  C        17.5889484584       17.0145567085        4.6436914089
  C        16.3635112464       16.9691397681        5.3047061535
  C        19.1153048863       17.9843203550        2.9066915881
  C        19.0913514976       17.9557316409        1.4850847901
  C        17.8716277318       17.8463143697        0.7443828334
  C        28.8081017488       14.0918667084       10.3899784539
  C        28.1915358500       12.9202525269       11.0779669653
  C        28.9163609964       12.1684182105       12.0144879770
  C        28.3135234119       11.0961473599       12.6674629094
  C        26.9723591092       10.7504603104       12.4061422925
  C        26.2687891243       11.4818774274       11.4325930963
  C        26.8688635571       12.5555328992       10.7794797383
  C        26.3011721037        9.6722250643       13.1684127347
  C        26.2856518227        9.7027470110       14.5893407071
  C        26.7902115457       10.8167883836       15.3326896382
  C        32.1801883362       21.2433516424       10.1470753168
  C        32.7735866853       22.4088252303       10.8665255113
  C        32.0198438691       23.0919746198       11.8336211225
  C        32.5865521391       24.1330556479       12.5622355318
  C        33.9235546407       24.5195411994       12.3461651087
  C        34.6602580748       23.8551273829       11.3473710525
  C        34.0956689297       22.8085942133       10.6201724524
  C        34.5469550781       25.5960031441       13.1502731980
  C        34.5221398608       25.5707297097       14.5722277864
  C        34.0064097872       24.4564032811       15.3068395254
  C        25.6718578887        8.6281342039       15.3094552205
  C        25.6657593808        8.6202260323       12.4961250287
  C        32.0780344785       21.2026220802        5.8768244042
  C        32.6428928027       22.3675480746        5.1352594149
  C        31.9049419464       23.0170119844        4.1331782196
  C        32.4752103246       24.0573667332        3.4013615233
  C        33.7963576636       24.4791738749        3.6523931808
  C        34.5146224991       23.8432682674        4.6835588871
  C        33.9505659566       22.7988973227        5.4103074723
  C        34.4351971425       25.5653671483        2.8720803719
  C        34.4630275929       25.5559601568        1.4497561874
  C        33.9766656573       24.4501642979        0.6834958643
  C        40.6128994573       17.1177476507        0.7561188753
  C        40.6010536657       17.1265727619        3.5659219857
  C        28.7124866460       14.0966557867        5.8176443299
  C        28.0880536990       12.9605756376        5.0767694457
  C        28.8316092799       12.2334249119        4.1331872239
  C        28.2451887516       11.1812644926        3.4344819430
  C        26.9002540999       10.8239733468        3.6573583571
  C        26.1720107198       11.5384572632        4.6272490569
  C        26.7552958214       12.5948733389        5.3253402603
  C        26.2628822987        9.7274539069        2.8876235415
  C        26.2673576386        9.7315308237        1.4656969421
  C        26.7785590720       10.8324254997        0.7087988436
  C        18.1352720252        3.1808674261       10.3172121710
  C        17.4059272410        4.2780886073       11.0157617421
  C        16.3905332090        3.9997120590       11.9436424595
  C        15.7428023285        5.0397013459       12.6071158337
  C        16.0943624183        6.3834684098       12.3671092591
  C        17.0833484531        6.6529723150       11.4029191954
  C        17.7324527190        5.6156393964       10.7378808713
  C        15.4701015208        7.4911953706       13.1301417373
  C        15.4855184671        7.4905568688       14.5518506193
  C        16.1871619937        6.4970121303       15.3050332512
  C        42.9457842795       31.8594023372       10.0728559287
  C        43.6460794005       30.7717869138       10.8167353201
  C        44.5915692444       31.0930861409       11.8028783073
  C        45.1972345195       30.0875153348       12.5505079210
  C        44.8707774701       28.7344442424       12.3356458796
  C        43.9449877066       28.4201344465       11.3223791911
  C        43.3362131945       29.4252919592       10.5743360790
  C        45.4883960461       27.6551756686       13.1388306750
  C        45.4927277195       27.6809636064       14.5605184817
  C        44.8056358299       28.6889962435       15.3071554325
  C        14.8565747607        8.5630578992       15.2642215242
  C        14.8747728789        8.5629536080       12.4515569445
  C        42.9464353723       31.9615162235        5.8089381841
  C        43.6916021170       30.8854698703        5.0955219396
  C        44.6561882502       31.1913525846        4.1231727500
  C        45.2776567031       30.1717425600        3.4054651388
  C        44.9538562677       28.8214058340        3.6430843723
  C        44.0203255248       28.5237803413        4.6538413712
  C        43.3921010706       29.5405572748        5.3660227195
  C        45.5628870394       27.7240376474        2.8578041273
  C        45.5332898078       27.7174560680        1.4365060062
  C        44.8269382585       28.7076600009        0.6835489057
  C        35.0785270004       26.6471583731        0.7502855744
  C        35.0459086183       26.6217302262        3.5605878557
  C        18.1484876122        3.2469309827        5.7066133491
  C        17.4298908917        4.3437589896        4.9973577640
  C        16.4149904067        4.0524682358        4.0734531331
  C        15.7666904969        5.0831091869        3.3980749738
  C        16.1209809945        6.4283904514        3.6211456743
  C        17.1120205924        6.7117573797        4.5787739121
  C        17.7596713046        5.6828532820        5.2585579636
  C        15.4905613319        7.5240976457        2.8486793280
  C        15.4965643351        7.5074977267        1.4275475143
  C        16.1933995468        6.5058473102        0.6808460107
  H        10.6723454613       12.4658829859        3.9046233184
  H        11.6944601804       10.5509970766        2.6627198283
  H        15.3915482774       11.1684983213        4.7722379290
  H        14.3511003575       13.0714134561        6.0174343943
  H        13.3760875535       11.6311118321        1.2013447137
  H        50.3227438317       22.7489125320        3.9873879837
  H        49.3195381665       24.6233265316        2.6812951869
  H        45.6414334605       24.1602493273        4.8628802161
  H        46.6624101229       22.2894391265        6.1711972414
  H        47.6297304356       23.5759459297        1.2461595315
  H        14.8717924374        8.5881776459        4.6085680297
  H        50.2872361171       22.7034050585       12.0595583291
  H        49.2691529323       24.5762432744       13.3596317508
  H        45.6096615151       24.1079411010       11.1471149372
  H        46.6518245656       22.2526773270        9.8328866141
  H        47.6077492681       23.5519255362       14.7967908484
  H        40.6345149450       17.0704999427       11.4139664577
  H        48.6868950668       14.0950830882        7.7999833919
  H        10.6811953289       12.4665772579       12.0930715763
  H        11.6893898720       10.5246218469       13.2968321644
  H        15.3935270929       11.1590403673       11.2058076822
  H        14.3649772890       13.0874653477        9.9904198698
  H        13.3757541354       11.6220846659       14.7530920586
  H        47.9300429375       14.2187086064        9.7108068967
  H        47.7799260586       14.3734848452        6.4950327167
  H        49.0824169999       18.5517892652       10.8670216502
  H        10.4156303001       14.1343770671        7.9987059317
  H        24.4898851560        3.0497112706        3.9169908285
  H        25.6138883682        4.9218034144        2.6956521569
  H        23.2071906480        7.7622915393        4.8496358139
  H        22.1026814094        5.8809183275        6.0730484587
  H        23.7882511810        5.8108334876        1.2714885157
  H        36.3551518394       32.1943470338        3.9885193710
  H        35.2040189630       30.3788754123        2.7225055574
  H        37.4652347866       27.4388941228        4.9006022611
  H        38.5958422065       29.2674419687        6.1773364437
  H        36.9703725726       29.4640702862        1.3011082597
  H        25.6796118431        8.6542428021        4.6551327424
  H        36.4496853426       32.2464626246       12.1080473559
  H        35.3332060341       30.4358732126       13.4074541297
  H        37.5401430265       27.4894408851       11.1810567814
  H        38.6301573044       29.3116517943        9.8674473070
  H        37.0095460760       29.4829628146       14.8542101168
  H        46.1086992626       26.5871922857       11.3855246151
  H        44.6681507005       35.1161131527        7.8138772206
  H        24.4274664797        3.0443215517       12.0979072193
  H        25.5527375915        4.8861087374       13.3504719449
  H        23.1593106597        7.7703677430       11.2408930252
  H        22.0451989307        5.9163808795        9.9890959806
  H        23.7748175642        5.8039054228       14.8228007245
  H        44.9535511274       34.3901826216        9.6950538798
  H        44.9013214340       34.2067498374        6.4904320406
  H        40.6660937716       33.2087288196       10.8529984436
  H        23.1502532403        1.9578133279        8.0053641528
  H        25.8456938993       19.6334127275        3.8320837078
  H        23.6663071281       19.6946555943        2.6228939754
  H        22.3212270925       16.2902268975        4.8815186323
  H        24.5013049213       16.2516362321        6.1003692565
  H        23.7188998115       17.6609392413        1.2365187089
  H        35.1205482174       15.4963869096        3.9453116350
  H        37.2425643634       15.4537775082        2.6327369136
  H        38.7186256560       18.7761859422        4.9335386046
  H        36.5962426888       18.7929597496        6.2550059918
  H        37.2234502039       17.4287359650        1.2420172692
  H        20.3550453031       18.0203834552        4.6604745499
  H        35.1459039892       15.4625313299       12.1224482936
  H        37.2829409522       15.4007853506       13.4090727687
  H        38.7380972729       18.7515103564       11.1373697394
  H        36.5975678177       18.7945016460        9.8479223578
  H        37.2341769380       17.4117475845       14.7944465234
  H        35.1573176038       26.6862228948       11.4072813928
  H        28.5070485233       21.0873017588        7.9620141489
  H        25.7505832550       19.6333130957       12.1607054547
  H        23.5650690083       19.6855139456       13.3727539572
  H        22.2993969730       16.1804380761       11.2261061571
  H        24.4860040913       16.1488303941       10.0107981907
  H        23.6964997535       17.6378341102       14.7902362205
  H        29.0062528098       21.7232652798        9.7575204688
  H        29.1372081803       21.7485176936        6.6005803377
  H        32.0790968344       18.5622465180       10.9873759100
  H        27.3992232590       19.0785514624        8.0825632848
  H        14.8505247605       19.6571535428       12.1271317611
  H        17.0150121593       19.7066859299       13.3685164280
  H        18.2991612170       16.1871757752       11.2562069369
  H        16.1310664487       16.1541092664       10.0136097558
  H        16.9172523871       17.7169986375       14.8410774991
  H        46.0928071308       15.4449349188       12.0723775767
  H        43.9664925003       15.3825972540       13.3758378059
  H        42.5375176914       18.7985869817       11.1866180438
  H        44.6645340493       18.8362025930        9.8731186762
  H        44.0165797939       17.3301183132       14.8237631299
  H        20.2879935415       17.9223138688       11.4140497355
  H        46.0424414890       15.3945919405        4.0235016660
  H        43.9126609597       15.3370569860        2.7266523638
  H        42.5201941732       18.7942092043        4.8733186723
  H        44.6562980162       18.8380469816        6.1713086898
  H        44.0055234045       17.3185067064        1.2730977016
  H        46.1987256475       26.6823383772        4.6233133533
  H        52.7410014291       21.0625894835        8.1946074334
  H        14.8680077644       19.6832422214        3.9017211901
  H        17.0655185193       19.7707452011        2.7170610998
  H        18.3438651285       16.2559968417        4.8401409223
  H        16.1479829967       16.1923743415        6.0344147934
  H        16.9376275668       17.7425858946        1.2884177361
  H        52.3220030909       21.6732730229        6.2946252174
  H        52.0129371810       21.7018922576        9.4955666430
  H        49.0669717533       18.6076597254        5.2041620535
  H        13.2471128605       19.0167281324        7.9771718447
  H        29.9505195190       12.4381888603       12.2162677102
  H        28.8766128460       10.5129915368       13.3929813122
  H        25.2322813101       11.2248716434       11.2240115674
  H        26.3230108123       13.1422406789       10.0447228614
  H        27.1601928981       11.6815137728       14.7900179698
  H        30.9930339123       22.7812629786       12.0099388649
  H        31.9965894657       24.6607919769       13.3083454798
  H        35.6953291628       24.1429428757       11.1749172694
  H        34.6713430990       22.2706500562        9.8704838684
  H        33.6609477383       23.5833579721       14.7602484396
  H        25.6973326963        8.5988475597       11.4082056557
  H        30.8878229838       22.6868566421        3.9331783104
  H        31.8959132023       24.5603923574        2.6301255876
  H        35.5373875226       24.1555513287        4.8841149083
  H        34.5136517450       22.2868063655        6.1868602813
  H        33.6090395227       23.5716691337        1.2062494055
  H        40.5968345514       17.0850385733        4.6534549734
  H        32.5198662530       14.1390674902        8.2592888630
  H        29.8737470409       12.4988727290        3.9704631556
  H        28.8293788890       10.6148902396        2.7123731223
  H        25.1313492545       11.2755835635        4.8058929924
  H        26.1895036528       13.1600164682        6.0624483179
  H        27.1378509838       11.7100777247        1.2384140550
  H        33.2951882853       14.1904041413        6.4334555826
  H        33.4066778002       14.4036304184        9.6095576214
  H        32.1788118372       18.5332126130        5.2055610864
  H        30.2287633314       14.1860678827        8.0880439148
  H        16.1186954500        2.9631985928       12.1303209876
  H        14.9535645938        4.8203027730       13.3230048306
  H        17.3654159856        7.6858804109       11.2094519637
  H        18.5141457020        5.8182966849       10.0096717739
  H        16.7537328960        5.7396751636       14.7715475980
  H        44.8278858895       32.1401469674       11.9771097317
  H        45.9370678349       30.3412078550       13.3065007159
  H        43.6822407200       27.3780777484       11.1522555653
  H        42.5996699074       29.1898895551        9.8096215108
  H        44.2301234331       29.4366598985       14.7688807019
  H        14.8508497671        8.5461467166       11.3633405884
  H        44.8997983551       32.2340127170        3.9317168348
  H        46.0245544459       30.4129188325        2.6522074206
  H        43.7632581857       27.4840676401        4.8453585523
  H        42.6455815233       29.3176861787        6.1244244723
  H        44.2682953705       29.4704634171        1.2181085942
  H        34.9990763886       26.6323102040        4.6479452075
  H        36.6051080012       35.1340079682        8.1806662748
  H        16.1441072763        3.0128795872        3.9034799148
  H        14.9745434874        4.8562598709        2.6877934537
  H        17.3951337614        7.7472669261        4.7560470654
  H        18.5421616514        5.8933067589        5.9837333246
  H        16.7648578221        5.7556150004        1.2192651795
  H        36.2785925316       34.4822647564        6.2733077541
  H        36.3806494441       34.2091089259        9.4995936593
  H        40.5789789711       33.2014094691        5.1542074195
  H        17.4708874864        1.9468582333        7.9740834971
  H        29.1276861862       19.4573420488       12.4860354029
  H        28.8615002720       18.5566653211        3.8178948488
  H        30.7320551247       15.4340539823        3.8366140477
  H        31.1949479095       15.6397902935       12.5116049676
  H        28.4886153848       17.9799158518       14.9270996332
  H        29.3753935172       15.6327215926       14.5949434584
  H        32.3220632993       17.8235188151        1.3701488715
  H        27.8460317105       15.8938809262        2.8126833702
  H        31.6884818484       19.9638920311       17.3595364540
  H        18.8535605661        0.8691448520       12.3351541604
  H        40.5278584848       35.2289714242        3.9521246910
  H        42.3238771754       34.4186162485        3.5909858611
  H        22.0879944154        0.6923784502       12.3512411551
  H        11.5970381862       18.7127439279       12.3822291584
  H        52.2648457302       18.4309642599        3.6777081639
  H        49.2551616581       16.4769828470        3.5846357271
  H        10.1502066181       15.7983262350       12.2927940030
  H        50.8498489871       17.6924575466        3.9542405465
  H        10.0459690655       17.3946395407       12.0519696251
  H        20.2148628678        0.0024096083       12.0419998758
  H        39.1834793344       36.1242658633        3.6864524929
 Ni        30.9032174117       17.6480177127        3.0768083615
 Ni        30.9382961229       16.6047833257        0.1659277655
 Ni        30.5634422778       18.8194528977       -0.3303564320
 Ni        30.0602412434       17.4954967553       13.1608427389
  O        10.6499511615       14.3651247202        5.4857991330
  O        12.6132322824       14.6575276179        6.5838713949
  O        49.1478030323       16.8459612635        7.9898071901
  O        50.3501541717       20.9361251790        5.6481696724
  O        48.3484914943       20.5933223726        6.6659682983
  O        11.0513003310       17.0539435029        6.5006448545
  O        50.3208977214       20.8817556043       10.4068370881
  O        48.3466752703       20.5867562775        9.3270905186
  O        49.5435023442       18.2484083483       10.0682888538
  O        12.3588344880       18.6245876448        7.9996262286
  O        48.6931726309       14.1486182073        6.7512624749
  O         8.2098261282       14.2104236415        9.3225815304
  O        10.7353428949       14.5067266341       10.6643404083
  O        12.5718006845       14.5827981538        9.3284480691
  O        22.8449421153        2.0451447009        5.4867505322
  O        21.6044483550        3.5919636918        6.5908883794
  O        42.0579451869       34.1371010813        7.9788797505
  O        37.9812815078       33.1368879231        5.5725924861
  O        39.2170447084       31.5750066322        6.6656293303
  O        20.3083946136        1.0393932278        6.5019471230
  O        38.0245904496       33.1855034003       10.4154760221
  O        39.2183005657       31.5830093080        9.3275510242
  O        40.6521732888       33.7691367234       10.0601696136
  O        18.2556013837        1.3757155147        7.9968124836
  O        44.6221786838       35.1006108964        6.7586751731
  O        24.2053831695        0.0000426800        9.3208120740
  O        22.7530571096        2.0583221699       10.5841886784
  O        21.6244009086        3.5961863076        9.3427497625
  O        27.5419122945       18.6948146781        5.4129959992
  O        26.7303537975       16.9900338679        6.6672461635
  O        30.6690904028       19.4017037167        8.0619681675
  O        33.5861975500       16.2789288641        5.6709502936
  O        34.2736451621       18.1705975080        6.7385366313
  O        29.5743126114       17.0623778526        6.5867862950
  O        33.5527736436       16.3394223002       10.4190661843
  O        34.3012045888       18.2382771145        9.4095945817
  O        31.6517111420       18.3168215156       10.1496293039
  O        30.3199842022       15.1530902681        8.0874500222
  O        28.5504163087       21.0302616142        6.8970703772
  O        28.5138481735       20.9588682435        9.4122850015
  O        27.4587261060       18.6804117345       10.6580586921
  O        26.6938926884       16.9307130401        9.4139149801
  O        13.1479126656       18.6932834005       10.5869307076
  O        13.9189014981       16.9160731379        9.4045511733
  O        50.5957695963       19.3501807801        8.0204505636
  O        47.6826224597       16.3271505582       10.4173769528
  O        46.9506370901       18.1755914471        9.3252743608
  O        11.0694957707       17.0155692270        9.4895886116
  O        47.6755261404       16.3359124628        5.6526464295
  O        46.9264558729       18.2357620565        6.6639939349
  O        49.5684039291       18.3177133579        5.9822398726
  O        10.3185567094       15.1002515105        7.9970276712
  O        52.6707112039       21.0279061121        9.2418198623
  O        12.1467705228       20.8912571293        6.6732948140
  O        13.1068282171       18.6142376421        5.3257133575
  O        13.9574296594       16.9876453251        6.6644112552
  O        29.9937581057       14.4403079545       10.7275485953
  O        28.0893945994       14.6548819549        9.4925963808
  O        32.1383620233       16.8603921322        8.0862275332
  O        30.9651458862       20.9537019090       10.4074257750
  O        32.9467246871       20.6038370674        9.3392675867
  O        29.5642707112       17.0787826961        9.5716796370
  O        30.8518561906       20.8837999382        5.6565393270
  O        32.8705055130       20.5865219548        6.6640977532
  O        31.6847174377       18.2491343561        5.9937285347
  O        28.2850814994       18.6803924488        8.0695964367
  O        32.4919806606       14.2126449853        9.3315111713
  O        32.4066077660       14.2080251833        6.8269126648
  O        29.9028145968       14.4360005804        5.4957516970
  O        28.0076337710       14.6457494833        6.7380155732
  O        17.8891750722        1.9665234449       10.6628187806
  O        18.9561749190        3.5270552810        9.4080154527
  O        39.1686324862       34.1385598177        7.9971342723
  O        43.2801488076       33.0589376958       10.3316231911
  O        42.0343282957       31.5065216689        9.2415724087
  O        20.3175808306        1.0365110742        9.4804450884
  O        43.2760769323       33.1826333381        5.5749639380
  O        42.0052421097       31.5841528503        6.5830325257
  O        40.5789033047       33.7747931240        5.9358327244
  O        22.3672143550        1.3845128614        7.9979339748
  O        36.6727449033       35.0997029349        9.2333081509
  O        16.4455730806        0.0641746546        6.6682735203
  O        17.9364559247        2.0433420866        5.3263764682
  O        18.9189345602        3.5930913531        6.6659944410
  O        29.7829044910       18.7583791016        4.0804082873
  O        29.8223329140       18.9750071978       11.9982835086
  O        31.2614628461       16.1858253761        4.1643116535
  O        31.1806382300       16.4779776092       12.0098327215
  O        31.9313078566       16.9327406836        1.6601217272
  O        27.9229307512       16.4167269640        1.9970645503
  O        30.2504212970       16.0518834013       14.4942254196
  O        31.9806437849       19.3504209467       16.6589736139
  O        29.1578591881       18.5371033678       14.4846314072
  O        39.4567467215       35.2436542691        4.0019370499
  O        19.1416110696        0.0046790924       11.9905575602
  O        41.9696327809       35.1727728147        4.0873088658
  O        21.6914980545       -0.0691102504       11.8958154784
  O        51.3649340219       18.6143268486        4.0054034606
  O        10.7511163640       18.7471849033       11.9049348803
  O        50.0797258866       16.4128017257        4.0917305459
  O         9.5243306790       16.4831343358       11.9912237033
 Zr         9.2962354564       16.0529083938        6.1823628946
 Zr        49.8358833463       16.0068800117        9.7465694613
 Zr        22.0731043990        0.0294610024        6.1891198290
 Zr        42.4608389203       35.1529570959        9.8007753108
 Zr        29.6102923563       19.0884864784        6.2897427384
 Zr        29.5836027141       19.1807415609        9.8492462088
 Zr        11.0374318966       19.0520363405        9.8276213669
 Zr        11.0433526440       19.1549118033        6.2511160037
 Zr        31.3396680451       16.1067239330        9.8715930773
 Zr        31.4061086003       16.0071008341        6.3233465021
 Zr        18.6008635581       -0.0020101349        9.7635372143
 Zr        18.5063973713       -0.0082309075        6.2135421655
 Zr        12.3015928188       16.3237448659        7.9900192976
 Zr        48.6154959330       18.8328352143        8.0103842706
 Zr        20.3145688906        2.4727620924        7.9908677865
 Zr        40.6428979064       32.6862375585        7.9780099785
 Zr        28.3338166728       16.3565475295        8.0863410399
 Zr        32.6414336302       18.8447426231        8.0601169800
  H        28.8733250547       16.6605940822        1.9531178312
