     571
 i =      105, E =     -4761.6099435126
  C        11.8587368970       14.0534168233        5.7415607940
  C        12.4561981285       12.8904224633        5.0234069008
  C        11.7046778849       12.1718222715        4.0813485313
  C        12.2810785973       11.1096526504        3.3889764919
  C        13.6215249092       10.7395559676        3.6170292012
  C        14.3544489965       11.4427174934        4.5909932090
  C        13.7815467402       12.5076511526        5.2825412584
  C        14.2611542132        9.6490047100        2.8435860619
  C        14.2564985027        9.6569923062        1.4218877366
  C        13.7432588951       10.7590743464        0.6679664269
  C        49.1267481512       21.2333629257        5.8796815497
  C        48.5500682723       22.4012987274        5.1526750144
  C        49.3000746066       23.0686093078        4.1716409960
  C        48.7331245153       24.1077266943        3.4384427926
  C        47.4025782810       24.5093703404        3.6670749216
  C        46.6716623698       23.8605311514        4.6806432287
  C        47.2341231735       22.8156384439        5.4099900990
  C        46.7723301062       25.5870482886        2.8697985227
  C        46.7613163733       25.5573983383        1.4480421599
  C        47.2612148697       24.4422873479        0.7045520221
  C        14.8605737283        8.5707416164        0.7086069978
  C        14.8919902325        8.5970654063        3.5202159043
  C        49.1131117421       21.2035785473       10.1454054140
  C        48.5277720723       22.3648663852       10.8725663405
  C        49.2669531517       23.0255880082       11.8655240855
  C        48.6905753604       24.0601217475       12.5969583114
  C        47.3601563957       24.4568818016       12.3586903044
  C        46.6398031066       23.8119775064       11.3351195576
  C        47.2133890433       22.7760857519       10.6033604568
  C        46.7216814216       25.5318251596       13.1497084416
  C        46.7334583125       25.5281746361       14.5714070865
  C        47.2488993475       24.4289656962       15.3277914626
  C        40.6363655735       17.1548127956       15.3226906123
  C        40.6556898032       17.1792015654       12.5139330813
  C        11.8829323961       14.0863993197       10.2854364843
  C        12.4721638262       12.9104949551       10.9894896670
  C        11.7148435973       12.1776509127       11.9160519821
  C        12.2814593138       11.0952394704       12.5845031398
  C        13.6201342845       10.7211806983       12.3523142205
  C        14.3578230735       11.4362669868       11.3909177337
  C        13.7923658391       12.5173755193       10.7181768799
  C        14.2538527509        9.6245656129       13.1227833386
  C        14.2526445270        9.6446312378       14.5446196006
  C        13.7427066278       10.7535406698       15.2917116254
  C        22.5113119668        3.2456216986        5.7535263609
  C        23.2222357288        4.3548028130        5.0560293491
  C        24.2199689939        4.0831112005        4.1082372238
  C        24.8404814253        5.1284209983        3.4286253594
  C        24.4789024767        6.4677584642        3.6763277861
  C        23.5102945349        6.7308854348        4.6619175747
  C        22.8853453755        5.6876623699        5.3399205048
  C        25.0744654327        7.5800767601        2.9009087443
  C        25.0439312876        7.5726529490        1.4794580761
  C        24.3458356309        6.5693623630        0.7347783496
  C        38.2984212874       31.9286098180        5.8520880506
  C        37.5574046873       30.8405040798        5.1504030407
  C        36.5925505756       31.1483088828        4.1787893827
  C        35.9626618014       30.1308817174        3.4673602576
  C        36.2823403580       28.7796154234        3.7046066632
  C        37.2165094512       28.4792184597        4.7139233513
  C        37.8504845780       29.4956488202        5.4246926708
  C        35.6721495953       27.6920159060        2.9055631375
  C        35.7132505730       27.7065507043        1.4840395902
  C        36.4283368788       28.7059926287        0.7513440236
  C        25.6597258045        8.6457100055        0.7582914215
  C        25.6646753239        8.6596282964        3.5707151312
  C        38.3308462370       31.9611770160       10.1603366102
  C        37.6146993986       30.8885269970       10.9102282574
  C        36.6827519832       31.1987075018       11.9127384582
  C        36.0732867506       30.1821141030       12.6460933018
  C        36.3807105659       28.8285334321       12.4013416860
  C        37.2936424481       28.5282485104       11.3715724174
  C        37.9049935477       29.5413869042       10.6393447650
  C        35.7655792116       27.7306013523       13.1834418755
  C        35.7610180345       27.7262831104       14.6059632562
  C        36.4496396412       28.7164804012       15.3747627003
  C        46.1354498839       26.6208075547       15.2815412131
  C        46.0876721055       26.5801491761       12.4736504062
  C        22.4593972885        3.2568293629       10.2593805329
  C        23.1483431756        4.3673884995       10.9849711843
  C        24.1441334981        4.0851961054       11.9337091147
  C        24.7662978104        5.1179523417       12.6314592458
  C        24.4135921862        6.4632605009       12.4029696515
  C        23.4410437804        6.7385133073       11.4228283026
  C        22.8137687376        5.7061187977       10.7261740811
  C        25.0387863988        7.5651784035       13.1771049677
  C        25.0259961195        7.5642914045       14.6000824324
  C        24.3345639197        6.5670052170       15.3579230737
  C        26.6215710266       17.8627034431        5.7482828345
  C        25.3180399598       17.9151732121        5.0185505975
  C        25.0507169745       18.9208866481        4.0765333566
  C        23.8317339367       18.9461856441        3.4008625707
  C        22.8460283578       17.9684118405        3.6452913566
  C        23.1109132104       16.9839923843        4.6155799498
  C        24.3297701116       16.9548828045        5.2903420955
  C        21.5701461273       17.9555365155        2.8872738156
  C        21.5706451541       17.9333535515        1.4655548741
  C        22.7767585140       17.8097648901        0.7061130416
  C        34.4453007333       17.1923498415        5.9264072670
  C        35.7386559806       17.1495830564        5.1815145318
  C        35.9444678964       16.1877721379        4.1802456820
  C        37.1224100441       16.1843520159        3.4387133798
  C        38.1280278645       17.1398279007        3.6821157870
  C        37.9260363654       18.0810016201        4.7092377097
  C        36.7437828609       18.0915316618        5.4457838430
  C        39.3817835162       17.1533147634        2.8959986938
  C        39.3781638002       17.1724799375        1.4746822290
  C        38.1718434791       17.2990871847        0.7165489399
  C        20.3243984018       17.9486313191        0.7578039440
  C        20.3467630926       17.9547759354        3.5715680758
  C        34.4769202251       17.2459468584       10.1818111097
  C        35.7800523125       17.1753203772       10.9052941709
  C        35.9913792518       16.2000749342       11.8910918175
  C        37.1768244690       16.1867129076       12.6204697716
  C        38.1784657360       17.1475503927       12.3821390293
  C        37.9733970290       18.0975404935       11.3644631181
  C        36.7855431554       18.1164345054       10.6386604763
  C        39.4245529068       17.1695303794       13.1779135358
  C        39.4000826117       17.1818369582       14.5987111499
  C        38.1821500455       17.3019904864       15.3397304513
  C        35.1201508183       26.6501584112       15.3059903978
  C        35.1799386882       26.6593506532       12.4964590826
  C        26.5705959402       17.8289218562       10.3232414366
  C        25.2543872921       17.8755926789       11.0280962025
  C        24.9897100111       18.8843077090       11.9666124944
  C        23.7709028521       18.9126916975       12.6386158938
  C        22.7885042514       17.9320685516       12.3954883475
  C        23.0478935360       16.9477345055       11.4248991781
  C        24.2673192493       16.9176259967       10.7508608864
  C        21.5243580151       17.9163501517       13.1672070354
  C        21.5469567884       17.9107975247       14.5883688161
  C        22.7654417575       17.7980647968       15.3301524988
  C        14.0453285127       17.8299705154       10.2868588181
  C        15.3500204508       17.8899315806       11.0097211731
  C        15.6068669406       18.8978852221       11.9519024645
  C        16.8161115684       18.9214144069       12.6436006842
  C        17.8009756162       17.9398157034       12.4139753279
  C        17.5492557756       16.9562725008       11.4391612182
  C        16.3394235718       16.9282422356       10.7491487208
  C        19.0690568033       17.9245454673       13.1827046834
  C        19.0661143824       17.9242422390       14.6048512528
  C        17.8587382709       17.8266778823       15.3658809373
  C        46.8067734311       17.2202604246       10.1597206142
  C        45.5192126956       17.1643797671       10.9080123917
  C        45.3130354509       16.1920376226       11.8986053964
  C        44.1330769084       16.1819315386       12.6372805447
  C        43.1308846329       17.1441600534       12.4060900008
  C        43.3345111488       18.0961941739       11.3892270143
  C        44.5150663367       18.1104064673       10.6518505652
  C        41.8786185518       17.1625710973       13.1941411611
  C        41.8837426002       17.1641125419       14.6156036479
  C        43.0924640699       17.2557154582       15.3749756321
  C        20.3122592273       17.9370681671       15.3131490807
  C        20.2928610423       17.9035125640       12.5004129750
  C        46.7864894531       17.2311766162        5.8904731922
  C        45.4829949972       17.1279577379        5.1772748000
  C        45.2631700909       16.1346331527        4.2113021154
  C        44.0751769569       16.1144936386        3.4852631931
  C        43.0791316980       17.0845916473        3.7090945732
  C        43.2884347970       18.0460820591        4.7150190212
  C        44.4775277056       18.0728715439        5.4358058290
  C        41.8347593501       17.1161057350        2.9112846469
  C        41.8615672328       17.1384481937        1.4908655250
  C        43.0820082721       17.2408746841        0.7515775843
  C        46.1532671937       26.6372562668        0.7262961939
  C        46.1623970214       26.6561738720        3.5359393599
  C        14.0445101066       17.8320258140        5.7083278400
  C        15.3646071190       17.9083994340        5.0157389466
  C        15.6343355027       18.9261372608        4.0885920411
  C        16.8618428911       18.9671356509        3.4312113941
  C        17.8472794774       17.9895746522        3.6754332086
  C        17.5843075841       17.0003275695        4.6404926121
  C        16.3586630116       16.9588460546        5.3013398238
  C        19.1138989664       17.9695919897        2.9051033953
  C        19.0895393510       17.9466182650        1.4834009027
  C        17.8700117848       17.8363960814        0.7422601671
  C        28.8071564146       14.0923679082       10.3915490459
  C        28.1875921474       12.9216752801       11.0801444359
  C        28.8996168865       12.1902230961       12.0421567854
  C        28.2935525887       11.1198875559       12.6953187601
  C        26.9613819641       10.7571239785       12.4105528383
  C        26.2718646745       11.4686575762       11.4124621685
  C        26.8755668038       12.5393876792       10.7579100044
  C        26.2860923349        9.6814274217       13.1720686430
  C        26.2641037455        9.7147893695       14.5929682506
  C        26.7575072241       10.8335265753       15.3368555804
  C        32.1815879912       21.2433824122       10.1414656124
  C        32.7774142683       22.4095908701       10.8627355866
  C        32.0244091543       23.0921029799       11.8307299081
  C        32.5925590576       24.1313753713       12.5616193704
  C        33.9302980176       24.5164159780       12.3469381802
  C        34.6664037016       23.8518714771       11.3477806318
  C        34.1001083348       22.8075618252       10.6181315194
  C        34.5554752630       25.5919086521       13.1514778640
  C        34.5324718156       25.5670239182       14.5734439796
  C        34.0110006399       24.4562426399       15.3093628869
  C        25.6565231769        8.6369284731       15.3132814583
  C        25.6557757076        8.6259817266       12.4998593160
  C        32.0795082502       21.2034395415        5.8802402840
  C        32.6454763150       22.3712912861        5.1403517888
  C        31.9083094509       23.0227098687        4.1395436027
  C        32.4801044695       24.0622380910        3.4073523337
  C        33.8027009225       24.4801718441        3.6562166915
  C        34.5204802425       23.8427313211        4.6867719950
  C        33.9540621215       22.7999954108        5.4144741169
  C        34.4440186104       25.5641107251        2.8744221153
  C        34.4734267499       25.5537308501        1.4521343754
  C        33.9811798076       24.4504774330        0.6859991492
  C        40.6248543453       17.1457838948        0.7667835928
  C        40.6042825873       17.1420129840        3.5762613123
  C        28.7202310662       14.0992807315        5.8213337121
  C        28.0942567026       12.9580308690        5.0851327597
  C        28.8216921826       12.2667628185        4.1039101579
  C        28.2372982973       11.2125173641        3.4065185297
  C        26.9077737426       10.8210364010        3.6636372496
  C        26.1963022900       11.5011078266        4.6701005135
  C        26.7796709571       12.5568991653        5.3698101171
  C        26.2672477346        9.7274379449        2.8926050596
  C        26.2561370903        9.7382759436        1.4702694106
  C        26.7511419950       10.8463316620        0.7129960748
  C        18.1354644891        3.1808954867       10.3172059928
  C        17.4062750263        4.2782122707       11.0159406451
  C        16.3901576415        3.9999455642       11.9430251694
  C        15.7424888488        5.0399918789       12.6064972615
  C        16.0948785269        6.3836285737       12.3671423296
  C        17.0847479404        6.6530809684       11.4038819021
  C        17.7337901978        5.6156691977       10.7388780657
  C        15.4705156055        7.4913655163       13.1301285439
  C        15.4858512638        7.4907595285       14.5518336934
  C        16.1874743820        6.4971736311       15.3049793595
  C        42.9458120240       31.8595902874       10.0728359393
  C        43.6461580557       30.7718682437       10.8168283923
  C        44.5917169534       31.0931802469       11.8028648266
  C        45.1973689785       30.0876216460       12.5505691229
  C        44.8708771093       28.7345741246       12.3357348468
  C        43.9450323000       28.4202383286       11.3225410898
  C        43.3362785441       29.4253958749       10.5744598411
  C        45.4884621212       27.6552690009       13.1389256172
  C        45.4926850708       27.6809024668       14.5606218619
  C        44.8056279257       28.6889647531       15.3072523931
  C        14.8567985375        8.5632120234       15.2641779249
  C        14.8751194126        8.5630341188       12.4515153012
  C        42.9464222743       31.9617005966        5.8089880879
  C        43.6916119586       30.8855423500        5.0954184535
  C        44.6563305691       31.1914575737        4.1232511717
  C        45.2779002254       30.1718619723        3.4055641579
  C        44.9540221936       28.8215633697        3.6431239015
  C        44.0203839492       28.5238840103        4.6537435830
  C        43.3920751807       29.5406583792        5.3658774994
  C        45.5630677756       27.7241487294        2.8578896483
  C        45.5333234761       27.7174232751        1.4365913960
  C        44.8269559208       28.7076276127        0.6836451991
  C        35.0928353847       26.6418907892        0.7514344892
  C        35.0553196415       26.6206915746        3.5617192778
  C        18.1486718200        3.2469523283        5.7066051203
  C        17.4302062414        4.3438602458        4.9971652155
  C        16.4146965829        4.0526671685        4.0739253097
  C        15.7664583200        5.0833431986        3.3985152478
  C        16.1214818192        6.4285062922        3.6210027375
  C        17.1132412578        6.7118295332        4.5778660255
  C        17.7608465013        5.6828665878        5.2576307966
  C        15.4909498406        7.5242335942        2.8486071356
  C        15.4968908652        7.5076842492        1.4274757459
  C        16.1937076862        6.5060057196        0.6807926460
  H        10.6726411188       12.4661309997        3.9040840554
  H        11.6948962453       10.5513921353        2.6621821446
  H        15.3913281667       11.1677788661        4.7730813202
  H        14.3508288784       13.0705202585        6.0183858993
  H        13.3761200922       11.6311551452        1.2012556592
  H        50.3227814052       22.7485908059        3.9868808816
  H        49.3195626373       24.6229904724        2.6808295151
  H        45.6421722987       24.1613024678        4.8638302990
  H        46.6630950363       22.2904267104        6.1720897511
  H        47.6297113752       23.5758891529        1.2462291288
  H        14.8722770994        8.5882038301        4.6085212568
  H        50.2870036514       22.7027815264       12.0604615509
  H        49.2689180983       24.5756155821       13.3604701135
  H        45.6104154058       24.1092345171       11.1459975494
  H        46.6525701925       22.2539495015        9.8317806377
  H        47.6076090041       23.5518101976       14.7969118977
  H        40.6623385181       17.1434864881       11.4262529977
  H        48.6869809784       14.0948308219        7.8000427314
  H        10.6814729058       12.4669114947       12.0937344984
  H        11.6897920015       10.5250946851       13.2975017928
  H        15.3930969383       11.1580456840       11.2046005096
  H        14.3645046254       13.0863442873        9.9891801470
  H        13.3757601410       11.6221127311       14.7530938685
  H        47.9302491509       14.2176487000        9.7109950892
  H        47.7799693558       14.3728473363        6.4950388167
  H        49.0840169846       18.5527275005       10.8675575670
  H        10.4160606610       14.1342363745        7.9988319113
  H        24.4867763355        3.0466247791        3.9138983867
  H        25.6139303671        4.9173822752        2.6933162507
  H        23.2237735191        7.7616271408        4.8601180457
  H        22.1149779636        5.8817030047        6.0821645472
  H        23.7878540295        5.8110458049        1.2762563554
  H        36.3613509059       32.1926342735        3.9827387969
  H        35.2154777948       30.3740934776        2.7150907603
  H        37.4711381872       27.4388079965        4.9052404338
  H        38.5974180702       29.2704942464        6.1823248806
  H        36.9910401743       29.4547157968        1.3012150274
  H        25.7026396014        8.6421176005        4.6584506878
  H        36.4552558309       32.2431281389       12.1139389740
  H        35.3440458007       30.4296941350       13.4143220670
  H        37.5448897737       27.4879072383       11.1757670956
  H        38.6304782087       29.3130524912        9.8623134118
  H        37.0296090765       29.4729290914       14.8537917306
  H        46.1090326732       26.5875568678       11.3856141945
  H        44.6683349060       35.1162817501        7.8138850911
  H        24.4218003551        3.0477740579       12.1060413154
  H        25.5422749883        4.8913489512       13.3595216533
  H        23.1569006148        7.7722544011       11.2366708219
  H        22.0470880401        5.9166684494        9.9841150357
  H        23.7670082496        5.8076844390       14.8277845636
  H        44.9541164253       34.3907932980        9.6955231973
  H        44.9018112574       34.2069026969        6.4905592874
  H        40.6662397310       33.2092016115       10.8532234288
  H        23.1500856188        1.9584201737        8.0055626974
  H        25.8032769794       19.6854887213        3.8960988952
  H        23.6264531921       19.7334790904        2.6785325617
  H        22.3613668017       16.2198541176        4.8113390681
  H        24.5454671084       16.1845777546        6.0271773507
  H        23.7167789186       17.6928195522        1.2370082729
  H        35.1649580011       15.4528061441        3.9941830210
  H        37.2814160756       15.4312859136        2.6699352181
  H        38.6955172623       18.8259771751        4.9012092604
  H        36.5696703743       18.8329640193        6.2222273138
  H        37.2331902539       17.4238315366        1.2486947322
  H        20.3543292326       17.9936071293        4.6594698920
  H        35.2070813785       15.4709551855       12.0810803333
  H        37.3412799747       15.4275867798       13.3820663274
  H        38.7414328663       18.8450387355       11.1767428991
  H        36.6036033819       18.8671578170        9.8732198641
  H        37.2512816781       17.4278868508       14.7943545110
  H        35.1630521776       26.6834405785       11.4084953028
  H        28.5110353091       21.0797620647        7.9620723936
  H        25.7519645777       19.6381476443       12.1506661540
  H        23.5642791349       19.6996328989       13.3608036029
  H        22.2974073195       16.1837855019       11.2321796850
  H        24.4845231424       16.1464954780       10.0155406042
  H        23.6963899349       17.6721958827       14.7855115865
  H        29.0017271833       21.7222418528        9.7610632974
  H        29.1506139018       21.7404773643        6.6055686001
  H        32.1001028724       18.5640919856       10.9798221127
  H        27.4020480068       19.0741191115        8.0757331460
  H        14.8482998615       19.6575542333       12.1267005115
  H        17.0130136067       19.7085254495       13.3683034257
  H        18.3004294643       16.1911328480       11.2541707921
  H        16.1317142460       16.1561392390       10.0121730045
  H        16.9164374617       17.7109184577       14.8382514231
  H        46.0942294424       15.4581748052       12.0823543699
  H        43.9721653137       15.4204489491       13.3971991772
  H        42.5680188594       18.8467154244       11.2076434685
  H        44.6900886158       18.8594084714        9.8831764135
  H        44.0345801594       17.3692506145       14.8462971402
  H        20.2867208731       17.9307297705       11.4122380346
  H        46.0389688243       15.3940847508        4.0306564483
  H        43.9062536676       15.3449172534        2.7352201336
  H        42.5231123015       18.7983920702        4.8939748650
  H        44.6624737450       18.8345684372        6.1891545259
  H        44.0161342468       17.3418153423        1.2964847795
  H        46.1992330696       26.6827443612        4.6233850909
  H        52.7410190173       21.0626164891        8.1946538588
  H        14.8720178292       19.6788253123        3.8999643607
  H        17.0700577552       19.7595383779        2.7154838317
  H        18.3365305803       16.2389795710        4.8365318107
  H        16.1403105990       16.1823851576        6.0305189779
  H        16.9363243583       17.7279533278        1.2859196606
  H        52.3221413807       21.6732792995        6.2945248375
  H        52.0131713669       21.7020803383        9.4956519842
  H        49.0673254889       18.6079574951        5.2042303583
  H        13.2471462197       19.0167441607        7.9769188521
  H        29.9255183670       12.4759783646       12.2638843671
  H        28.8473082472       10.5514384809       13.4394208429
  H        25.2428296879       11.1982268883       11.1846284981
  H        26.3409601941       13.1105299686       10.0028591073
  H        27.1168689361       11.7024673158       14.7939281955
  H        30.9969834709       22.7814462758       12.0049913689
  H        32.0023152864       24.6598751961       13.3070862265
  H        35.7018794777       24.1387583120       11.1759365671
  H        34.6743217101       22.2695785537        9.8672000127
  H        33.6568519611       23.5883817608       14.7605475825
  H        25.6926346218        8.6017471351       11.4121577246
  H        30.8915447314       22.6921709248        3.9388934222
  H        31.9007758588       24.5672388143        2.6373781579
  H        35.5440958363       24.1528477533        4.8865116326
  H        34.5156921099       22.2863420497        6.1911602209
  H        33.6043573377       23.5777067551        1.2115843705
  H        40.5965548072       17.0980061393        4.6636571659
  H        32.5105857560       14.1447638879        8.2611297749
  H        29.8472082046       12.5708767006        3.9074807849
  H        28.8111244516       10.6728470358        2.6562163607
  H        25.1678357905       11.2122286670        4.8771506642
  H        26.2267031168       13.0949154331        6.1363477145
  H        27.1042531921       11.7254588831        1.2441238820
  H        33.3096897573       14.2215933262        6.4642121121
  H        33.4095661510       14.4075204835        9.6037896776
  H        32.1835569569       18.5063890829        5.2028115007
  H        30.2105892356       14.1879441407        8.0830329323
  H        16.1177656887        2.9634704803       12.1291154247
  H        14.9527260194        4.8207100171       13.3218439572
  H        17.3676275070        7.6859038814       11.2111528851
  H        18.5162512365        5.8181894771       10.0114480874
  H        16.7540265509        5.7398558614       14.7714363656
  H        44.8280462532       32.1402612241       11.9770114068
  H        45.9372541815       30.3413784088       13.3064947952
  H        43.6822736524       27.3781796476       11.1524546166
  H        42.5996832420       29.1900843961        9.8097623120
  H        44.2302685312       29.4367277269       14.7689456617
  H        14.8513098723        8.5461637869       11.3632983209
  H        44.8999375555       32.2341375465        3.9318634373
  H        46.0249294071       30.4130857467        2.6524461008
  H        43.7633394140       27.4841623752        4.8452435989
  H        42.6454276693       29.3178850408        6.1241862383
  H        44.2684971245       29.4705382655        1.2182505834
  H        35.0064812621       26.6335864836        4.6489469845
  H        36.6052759103       35.1340152348        8.1806909663
  H        16.1433621507        3.0131154462        3.9044401930
  H        14.9739007652        4.8565807820        2.6886619126
  H        17.3970931718        7.7472507156        4.7544663561
  H        18.5440470070        5.8932077318        5.9820792446
  H        16.7651465556        5.7557906804        1.2192669125
  H        36.2788964723       34.4821941411        6.2733222071
  H        36.3810626509       34.2089623314        9.4995350616
  H        40.5792480073       33.2019473219        5.1539626120
  H        17.4708952065        1.9469838812        7.9740853116
  H        29.0290444391       19.4413441101       12.4804392328
  H        28.8111455590       18.9118188342        3.7528379759
  H        31.8719269230       15.6267928489        3.6197062166
  H        31.1609204126       15.5981019214       12.5083594643
  H        27.9304737972       17.9908540523       14.6396789663
  H        29.4035235843       15.3081124121       14.5095533263
  H        32.7716383868       17.2717479534        1.4751088925
  H        28.1402559878       16.7441442151        2.4252044712
  H        32.2373899796       18.6246032070       14.5924877430
  H        18.8539397114        0.8690333911       12.3353760903
  H        40.5279011321       35.2288620596        3.9520532953
  H        42.3244490567       34.4192839856        3.5903977849
  H        22.0878890444        0.6925910338       12.3511204526
  H        11.5966864054       18.7133719979       12.3827323379
  H        52.2645328784       18.4310070062        3.6770401732
  H        49.2552708482       16.4767346551        3.5843937331
  H        10.1509985726       15.7980565411       12.2923156248
  H        50.8496847656       17.6923269269        3.9542739983
  H        10.0464535672       17.3944558156       12.0519869328
  H        20.2154371660        0.0024590592       12.0418799761
  H        39.1836716660       36.1243458555        3.6864308366
 Ni        30.6479498232       17.5501857095        2.8310203649
 Ni        31.1543083626       16.4268325012       -0.1642251342
 Ni        29.9300295766       18.5985145186       -0.0802940965
 Ni        30.1441806054       17.5422963330       13.2391394019
  O        10.6500058572       14.3651059840        5.4858245128
  O        12.6131903538       14.6575415663        6.5838918796
  O        49.1481796408       16.8459150616        7.9897710525
  O        50.3502605705       20.9359664556        5.6481183222
  O        48.3485762820       20.5933873223        6.6659217028
  O        11.0515262257       17.0539377816        6.5006277855
  O        50.3209710275       20.8816903039       10.4068343724
  O        48.3467569488       20.5868260745        9.3271612457
  O        49.5437004562       18.2484445813       10.0683613403
  O        12.3589004032       18.6245527693        7.9996122882
  O        48.6932878321       14.1485166821        6.7513239831
  O         8.2098952015       14.2103306516        9.3225159960
  O        10.7353856496       14.5067031199       10.6643100646
  O        12.5717984187       14.5828177799        9.3284588391
  O        22.8448305779        2.0447036476        5.4869133432
  O        21.6047237788        3.5919448190        6.5907186789
  O        42.0580599182       34.1373431465        7.9789083867
  O        37.9813470469       33.1372183741        5.5726245166
  O        39.2174020942       31.5753701775        6.6659946754
  O        20.3084288084        1.0395324984        6.5020538162
  O        38.0246180483       33.1853108379       10.4156225394
  O        39.2185613463       31.5831600075        9.3273095015
  O        40.6522681480       33.7692607078       10.0601699956
  O        18.2556410463        1.3758910664        7.9968282346
  O        44.6221808877       35.1006039379        6.7587193491
  O        24.2053780764        0.0000631711        9.3207820218
  O        22.7530174454        2.0587015425       10.5843947452
  O        21.6243547677        3.5961017029        9.3427032830
  O        27.5390884806       18.6971962807        5.4107398663
  O        26.7294700458       16.9913570203        6.6667876274
  O        30.6665780960       19.4005957097        8.0568385466
  O        33.5962040293       16.2731726590        5.6735407300
  O        34.2745416246       18.1709854118        6.7357200947
  O        29.5758602280       17.0626961738        6.5784886939
  O        33.6198647962       16.3291774876       10.4124124178
  O        34.3060937961       18.2473141326        9.4068653637
  O        31.6529028990       18.3156799491       10.1546016802
  O        30.3176392310       15.1530376891        8.0895889557
  O        28.5515211606       21.0289618319        6.8939432134
  O        28.5130064513       20.9583919250        9.4100269643
  O        27.4562333105       18.6791656350       10.6584914850
  O        26.6931023447       16.9292207119        9.4130353820
  O        13.1476138580       18.6933904510       10.5868748836
  O        13.9188264757       16.9161429352        9.4045356921
  O        50.5962334443       19.3503875248        8.0204221414
  O        47.6836884813       16.3269927620       10.4172531053
  O        46.9525901198       18.1760353472        9.3240375856
  O        11.0696085196       17.0155874953        9.4896276019
  O        47.6764122441       16.3354260396        5.6531498713
  O        46.9289553269       18.2357510244        6.6655793120
  O        49.5687223888       18.3177241040        5.9822059889
  O        10.3186318539       15.1000837200        7.9970608930
  O        52.6707383099       21.0279192216        9.2418181171
  O        12.1468309135       20.8912161176        6.6732068892
  O        13.1072127111       18.6139816071        5.3256026896
  O        13.9570456883       16.9872539641        6.6647688284
  O        29.9909010627       14.4394678423       10.7315029353
  O        28.0885169948       14.6548010019        9.4935470305
  O        32.1398138760       16.8567438728        8.0826654300
  O        30.9681306669       20.9568217240       10.4052760575
  O        32.9492261355       20.6019306862        9.3381340643
  O        29.5668970830       17.0775992078        9.5764894377
  O        30.8538295348       20.8869329917        5.6569963543
  O        32.8720414770       20.5858985113        6.6640563237
  O        31.6800751440       18.2516487324        5.9915254809
  O        28.2887856659       18.6785360382        8.0671836044
  O        32.4933478913       14.2126766628        9.3324820531
  O        32.4070656637       14.2109923647        6.8244847595
  O        29.9043997877       14.4353848696        5.5000354816
  O        28.0061670900       14.6502971211        6.7401951871
  O        17.8891954662        1.9665789598       10.6628246019
  O        18.9561738392        3.5271128233        9.4079958538
  O        39.1685897363       34.1386672883        7.9971578481
  O        43.2802168970       33.0589652416       10.3316968188
  O        42.0344394047       31.5064559466        9.2416045135
  O        20.3176502353        1.0366830379        9.4803095850
  O        43.2760668895       33.1826309728        5.5748832794
  O        42.0052391704       31.5841402112        6.5829756593
  O        40.5790009372       33.7749024317        5.9358887058
  O        22.3673798390        1.3846280199        7.9979524165
  O        36.6727932886       35.0996972092        9.2333472449
  O        16.4456216652        0.0642481757        6.6682881407
  O        17.9364847072        2.0433878946        5.3263770530
  O        18.9189462385        3.5931483773        6.6659812060
  O        29.7466451646       18.8277376880        4.0074748904
  O        29.7810321038       19.0444875792       12.0001007526
  O        31.3881667114       16.2736852134        4.1607192385
  O        31.3013457902       16.4196034474       11.9949517245
  O        31.9395673851       16.7741958312        1.5131561647
  O        28.9832122033       16.4876609215        2.0073993052
  O        30.2434497754       15.7551090827       14.3189674746
  O        31.4307165026       18.1011744185       14.7311180794
  O        28.7168442913       18.5387417847       14.4798137947
  O        39.4567178348       35.2436877797        4.0019760356
  O        19.1419494618        0.0046651723       11.9905081461
  O        41.9695537282       35.1727665568        4.0872511788
  O        21.6914889029       -0.0690867067       11.8958580483
  O        51.3648407460       18.6142553378        4.0053423072
  O        10.7510265820       18.7472778524       11.9049672386
  O        50.0796859090       16.4127725934        4.0917199131
  O         9.5249725269       16.4829521722       11.9912245520
 Zr         9.2967274624       16.0526110051        6.1824605723
 Zr        49.8361812197       16.0065606635        9.7464567162
 Zr        22.0733850621        0.0302893247        6.1889111954
 Zr        42.4610954160       35.1537871906        9.8008594586
 Zr        29.6164234091       19.0846794823        6.2728519524
 Zr        29.5823740103       19.1811373789        9.8622613229
 Zr        11.0374833034       19.0521102830        9.8276061220
 Zr        11.0434667101       19.1549526557        6.2510131554
 Zr        31.3513527641       16.1008856727        9.8871265953
 Zr        31.3932984103       16.0017334373        6.2940916802
 Zr        18.6012040633       -0.0015757971        9.7635040034
 Zr        18.5066699194       -0.0077660742        6.2136881509
 Zr        12.3013148615       16.3233457092        7.9901668881
 Zr        48.6166549458       18.8332852907        8.0103032781
 Zr        20.3154077700        2.4735401911        7.9907553990
 Zr        40.6432254280       32.6870105120        7.9780849536
 Zr        28.3464032720       16.3517635747        8.0883938568
 Zr        32.6309193739       18.8314238626        8.0606915862
  H        29.0072908725       16.9061694166        1.0977219642
