     569
 i =      181, E =     -4729.4546555225
  C        11.8585968204       14.0533187281        5.7414794915
  C        12.4560327068       12.8903338777        5.0232597924
  C        11.7044540849       12.1716720981        4.0813056195
  C        12.2808556280       11.1094457818        3.3890162063
  C        13.6213317053       10.7393875012        3.6169534865
  C        14.3543369739       11.4427508964        4.5907042739
  C        13.7814653865       12.5077276723        5.2822119738
  C        14.2608891372        9.6487540808        2.8435533370
  C        14.2560960590        9.6566653833        1.4218553197
  C        13.7430299008       10.7588489931        0.6679706277
  C        49.1265039998       21.2334872331        5.8798107668
  C        48.5496244283       22.4013037153        5.1527435721
  C        49.2996226531       23.0685921449        4.1716902409
  C        48.7326776401       24.1076379052        3.4384016918
  C        47.4021115442       24.5092009027        3.6670151856
  C        46.6711658003       23.8604465272        4.6806107490
  C        47.2336767578       22.8156203863        5.4100233708
  C        46.7719357889       25.5868787953        2.8697019349
  C        46.7609367006       25.5572753634        1.4479470004
  C        47.2609414908       24.4422010459        0.7044728704
  C        14.8600866397        8.5703600381        0.7085886774
  C        14.8916829469        8.5968081560        3.5202028611
  C        49.1129981042       21.2035596083       10.1453236188
  C        48.5276236708       22.3648810228       10.8724200554
  C        49.2667613176       23.0254088345       11.8655344038
  C        48.6903934509       24.0599311575       12.5969882404
  C        47.3600665808       24.4569006028       12.3585665899
  C        46.6397839424       23.8121437646       11.3348488472
  C        47.2133392969       22.7762665728       10.6030406810
  C        46.7215483020       25.5317925626       13.1496076117
  C        46.7333086160       25.5281128206       14.5713088873
  C        47.2486497264       24.4288684228       15.3277122274
  C        40.6248767798       17.0990971236       15.3268006240
  C        40.6405948995       17.1464061167       12.5167383180
  C        11.8827721831       14.0862931021       10.2854862245
  C        12.4718942568       12.9103644350       10.9896145151
  C        11.7145197441       12.1775625921       11.9161595836
  C        12.2810113838       11.0950604801       12.5845712226
  C        13.6196579793       10.7209417885       12.3523173643
  C        14.3574449565       11.4359389400       11.3909367086
  C        13.7920531885       12.5171294664       10.7182676561
  C        14.2532760495        9.6242326779       13.1227444000
  C        14.2521684177        9.6442721635       14.5445881391
  C        13.7423885212       10.7532309418       15.2917161093
  C        22.5131279798        3.2438540096        5.7536915060
  C        23.2316966467        4.3470605347        5.0553254497
  C        24.2300122944        4.0627577050        4.1117277098
  C        24.8619227150        5.0992929158        3.4298292700
  C        24.5111725080        6.4424079817        3.6711781346
  C        23.5410850165        6.7182457517        4.6520458655
  C        22.9046298930        5.6834757065        5.3326166941
  C        25.1204506026        7.5462851471        2.8946936216
  C        25.0928053935        7.5384339361        1.4732618254
  C        24.3896785182        6.5392492989        0.7280357297
  C        38.2975085078       31.9279657649        5.8514811224
  C        37.5544070119       30.8402625983        5.1496177575
  C        36.5878777581       31.1493233284        4.1798088195
  C        35.9548904159       30.1332939531        3.4686537449
  C        36.2726804389       28.7809110459        3.7030973431
  C        37.2088130418       28.4792271285        4.7105568812
  C        37.8455973421       29.4943306161        5.4214205670
  C        35.6603289569       27.6941447156        2.9029849841
  C        35.6989082954       27.7107357622        1.4809788378
  C        36.4097094238       28.7129831022        0.7480228634
  C        25.7145259202        8.6087959635        0.7527812746
  C        25.7185636711        8.6208876222        3.5645453226
  C        38.3298368579       31.9612311990       10.1596132702
  C        37.6108846250       30.8894030101       10.9079686010
  C        36.6764768308       31.2011237886       11.9077861441
  C        36.0637732839       30.1857021165       12.6400055277
  C        36.3705891838       28.8316466569       12.3971594801
  C        37.2858916923       28.5298863852       11.3698478206
  C        37.9002035454       29.5418321682       10.6384089088
  C        35.7538245256       27.7345280014       13.1790982679
  C        35.7463459042       27.7315824121       14.6018132977
  C        36.4310322062       28.7240245843       15.3713118045
  C        46.1351910313       26.6206736875       15.2814671275
  C        46.0876062711       26.5801492139       12.4735429940
  C        22.4611572811        3.2554206842       10.2575841906
  C        23.1563731870        4.3629268491       10.9806999405
  C        24.1601136041        4.0747055735       11.9191389293
  C        24.7897466879        5.1031971097       12.6158265067
  C        24.4356899753        6.4495671101       12.3968224019
  C        23.4548589380        6.7310757797       11.4269260944
  C        22.8207618089        5.7028157758       10.7304533770
  C        25.0685672763        7.5460547249       13.1712484036
  C        25.0663431403        7.5379360542       14.5940841608
  C        24.3751833871        6.5399673127       15.3512359822
  C        26.5763384699       17.8215874519        5.7574778099
  C        25.2704854410       17.8688781118        5.0358148235
  C        25.0105898175       18.8725990246        4.0902261182
  C        23.7978580667       18.8955002766        3.4063663282
  C        22.8137167244       17.9163443858        3.6466257260
  C        23.0689503257       16.9351254528        4.6221829367
  C        24.2828009349       16.9086021811        5.3056830048
  C        21.5456038097       17.9041591821        2.8794325259
  C        21.5532582437       17.8892785595        1.4578597978
  C        22.7629908737       17.7672240302        0.7033989262
  C        34.4476986810       17.1854585807        5.9574163543
  C        35.7366730757       17.1298422452        5.2066884069
  C        35.9389305418       16.1509330636        4.2214851844
  C        37.1140144337       16.1355692402        3.4744105836
  C        38.1205957973       17.0956787383        3.6950621157
  C        37.9211487210       18.0555005417        4.7056804306
  C        36.7421423435       18.0781399514        5.4475094565
  C        39.3730800619       17.0996440426        2.9038067582
  C        39.3681474773       17.1096934151        1.4819052948
  C        38.1600287709       17.2264751014        0.7252746162
  C        20.3099068432       17.9142946601        0.7459776180
  C        20.3202683056       17.9051539270        3.5582371730
  C        34.4201117017       17.2203229249       10.2547112098
  C        35.7333351253       17.1439122696       10.9576527208
  C        35.9730774122       16.1482677360       11.9171596316
  C        37.1708902039       16.1288158978       12.6251936595
  C        38.1591235221       17.1054467512       12.3947113318
  C        37.9288746585       18.0732318132       11.3993430751
  C        36.7296673419       18.0958604813       10.6917184155
  C        39.4106875352       17.1253061183       13.1835051803
  C        39.3873041485       17.1246507482       14.6049146519
  C        38.1693640874       17.2325388767       15.3483254303
  C        35.1083446869       26.6536522016       15.3016990618
  C        35.1713297658       26.6617181132       12.4917858137
  C        26.5605394786       17.8140221281       10.3199724137
  C        25.2487246111       17.8592000362       11.0252816976
  C        24.9673339511       18.8870446886       11.9381418726
  C        23.7506730897       18.9082840027       12.6136843181
  C        22.7861950826       17.9054425534       12.3933864187
  C        23.0602371413       16.9029542486       11.4458958445
  C        24.2789870025       16.8769559336       10.7718126097
  C        21.5206978282       17.8911269032       13.1620074872
  C        21.5403199559       17.8834182160       14.5825329750
  C        22.7566030991       17.7653489585       15.3270889526
  C        14.0443872342       17.8307434095       10.2839059588
  C        15.3504850202       17.8911638911       11.0011317521
  C        15.6124024338       18.9016748573       11.9387592143
  C        16.8232381737       18.9224002773       12.6269932406
  C        17.8022217107       17.9350559652       12.3979315361
  C        17.5462852391       16.9502970062       11.4259237300
  C        16.3351856058       16.9252671253       10.7391174666
  C        19.0677527525       17.9123245142       13.1681841544
  C        19.0595265470       17.9072187770       14.5895871095
  C        17.8480652093       17.8125964517       15.3444668086
  C        46.8033456922       17.2192037141       10.1599029679
  C        45.5131464734       17.1573405394       10.9070856868
  C        45.3068087405       16.1776524502       11.8908863214
  C        44.1254087723       16.1578995392       12.6278715757
  C        43.1191592442       17.1182816161       12.4044588735
  C        43.3230119447       18.0780824877       11.3943463320
  C        44.5050110046       18.1013331545       10.6578287845
  C        41.8657795614       17.1263213864       13.1943660594
  C        41.8713830902       17.1164004251       14.6167927139
  C        43.0803917991       17.2071211716       15.3759591337
  C        20.3029216682       17.9108666934       15.3022069811
  C        20.2930025382       17.8847565576       12.4896304925
  C        46.7848129679       17.2298240091        5.8904459225
  C        45.4806431446       17.1194865545        5.1777878306
  C        45.2634866481       16.1179197295        4.2194241696
  C        44.0747731500       16.0864201195        3.4946467700
  C        43.0739004354       17.0531653603        3.7117657117
  C        43.2811147788       18.0239261833        4.7094752616
  C        44.4710877240       18.0619831507        5.4291409457
  C        41.8276452477       17.0721820378        2.9150646693
  C        41.8521627400       17.0868108948        1.4942169080
  C        43.0711834377       17.1908094820        0.7526504011
  C        46.1530161733       26.6372127461        0.7262167334
  C        46.1619688653       26.6559971161        3.5358093341
  C        14.0396616406       17.8270012962        5.7057823276
  C        15.3534255752       17.8919267161        5.0047519499
  C        15.6261453503       18.9110486348        4.0804993996
  C        16.8502165538       18.9429779837        3.4174308893
  C        17.8258417466       17.9545384687        3.6544904265
  C        17.5590369782       16.9616692406        4.6140957446
  C        16.3371860653       16.9293878830        5.2807661366
  C        19.0915887059       17.9296653471        2.8865470873
  C        19.0721179545       17.9148741718        1.4657148308
  C        17.8543689970       17.8155969679        0.7206667466
  C        28.8030715173       14.0890411832       10.3898415472
  C        28.1926642712       12.9126885825       11.0738726062
  C        28.9233354608       12.1627093430       12.0077510080
  C        28.3257598688       11.0893277803       12.6634526024
  C        26.9842392718       10.7404760007       12.4060282268
  C        26.2764394341       11.4684579611       11.4333433904
  C        26.8714199494       12.5433619183       10.7777432878
  C        26.3184422640        9.6595361416       13.1679680894
  C        26.3111340420        9.6847165048       14.5887734823
  C        26.8130613801       10.7991122659       15.3335383344
  C        32.1857678776       21.2352933099       10.1423537354
  C        32.7767652197       22.4039716201       10.8605541984
  C        32.0232317357       23.0855502955       11.8292746890
  C        32.5897530930       24.1262805492       12.5591029904
  C        33.9259080167       24.5158718679       12.3421129038
  C        34.6614547779       23.8540351487       11.3404080243
  C        34.0975059326       22.8074642542       10.6123781146
  C        34.5486634444       25.5931195891       13.1465655317
  C        34.5253998898       25.5680238999       14.5686661368
  C        34.0131932198       24.4526942050       15.3037753182
  C        25.7053688247        8.6049054836       15.3080422557
  C        25.6805816472        8.6097715779       12.4946662749
  C        32.0916112498       21.1666620031        5.8418109452
  C        32.6534813486       22.3404479472        5.1069148503
  C        31.9219492957       22.9818041028        4.0956916120
  C        32.4868951137       24.0347058006        3.3777440518
  C        33.7992145429       24.4728623198        3.6466834773
  C        34.5107681685       23.8447569115        4.6872093038
  C        33.9492633458       22.7919394267        5.4042828160
  C        34.4372812935       25.5620713721        2.8697128246
  C        34.4684540046       25.5524451041        1.4471424589
  C        33.9856512220       24.4453855845        0.6803492263
  C        40.6144500371       17.0874169277        0.7716969673
  C        40.5974733340       17.0973532552        3.5813878683
  C        28.7456235717       14.0671314021        5.8151863557
  C        28.1370849261       12.9192001845        5.0793143959
  C        28.8728847032       12.2309508197        4.1027832510
  C        28.2962845507       11.1720206239        3.4060417218
  C        26.9676325708       10.7761193289        3.6595702607
  C        26.2488020673       11.4526470728        4.6627413740
  C        26.8241734196       12.5118216124        5.3619671889
  C        26.3290583812        9.6841935643        2.8868296201
  C        26.3178057073        9.6973272219        1.4648826401
  C        26.8138887691       10.8065265327        0.7097091057
  C        18.1354335312        3.1809022178       10.3171006118
  C        17.4060626884        4.2781452606       11.0157236349
  C        16.3902632987        3.9996727931       11.9431056229
  C        15.7424308009        5.0395880356       12.6066032406
  C        16.0943691720        6.3833178336       12.3670705580
  C        17.0838432593        6.6529501285       11.4034405039
  C        17.7330493917        5.6156765107       10.7383778863
  C        15.4699103354        7.4909502910       13.1301098207
  C        15.4852419405        7.4903120504       14.5518229618
  C        16.1868445442        6.4967253015       15.3049836707
  C        42.9456875735       31.8595034449       10.0727731506
  C        43.6460453695       30.7717828821       10.8167289868
  C        44.5915392082       31.0931011028       11.8028225184
  C        45.1971888461       30.0875466186       12.5505194171
  C        44.8707959784       28.7344885517       12.3356086234
  C        43.9450242218       28.4201620401       11.3223494629
  C        43.3362667987       29.4253118562       10.5742677755
  C        45.4883528543       27.6552196963       13.1388470581
  C        45.4925654737       27.6808442484       14.5605394875
  C        44.8053810977       28.6888753263       15.3070990821
  C        14.8561721861        8.5627664522       15.2641552262
  C        14.8745425726        8.5626688906       12.4515377909
  C        42.9463062296       31.9616063260        5.8089255053
  C        43.6914786845       30.8854085195        5.0954393449
  C        44.6562215628       31.1913143105        4.1232953904
  C        45.2777245104       30.1717311766        3.4055467331
  C        44.9536993596       28.8214494787        3.6429888494
  C        44.0200098527       28.5237610989        4.6535582078
  C        43.3917731390       29.5405351912        5.3657494733
  C        45.5627090136       27.7240134131        2.8577804203
  C        45.5329665262       27.7173288643        1.4364912803
  C        44.8266865673       28.7075463074        0.6834903452
  C        35.0814276583       26.6446989239        0.7474045706
  C        35.0452555091       26.6205672993        3.5577584490
  C        18.1486393472        3.2468495349        5.7065818418
  C        17.4300448616        4.3436916811        4.9972355594
  C        16.4146237400        4.0524132085        4.0739077744
  C        15.7662785232        5.0830112457        3.3984916433
  C        16.1211257953        6.4282130833        3.6210953289
  C        17.1127846784        6.7116709752        4.5780264174
  C        17.7604597056        5.6827439479        5.2577820805
  C        15.4905706019        7.5238924471        2.8486511332
  C        15.4963141252        7.5072836730        1.4275142438
  C        16.1931128884        6.5056196310        0.6807975404
  H        10.6723945169       12.4659361848        3.9041086494
  H        11.6946523008       10.5510919873        2.6623096957
  H        15.3912860746       11.1679784732        4.7726527283
  H        14.3508031294       13.0706759262        6.0179539139
  H        13.3761162169       11.6310258735        1.2012588262
  H        50.3223306689       22.7485568329        3.9869622914
  H        49.3191013427       24.6228655304        2.6807540379
  H        45.6416626156       24.1611983897        4.8637450853
  H        46.6626661965       22.2904049081        6.1721352428
  H        47.6293808892       23.5757834082        1.2461618688
  H        14.8720958597        8.5880801191        4.6085114762
  H        50.2867413560       22.7024397706       12.0605769991
  H        49.2686931977       24.5752810112       13.3606317084
  H        45.6104620043       24.1095573354       11.1456053842
  H        46.6526038113       22.2542838267        9.8312949013
  H        47.6074296787       23.5517340326       14.7968443701
  H        40.6450555677       17.1224297217       11.4286348123
  H        48.6870920429       14.0949176078        7.8000043161
  H        10.6812030899       12.4669752898       12.0938898733
  H        11.6893393836       10.5249690963       13.2976048935
  H        15.3927085250       11.1576675843       11.2046452542
  H        14.3642733616       13.0860916184        9.9893309293
  H        13.3756449190       11.6218940132       14.7531011577
  H        47.9300314577       14.2181943840        9.7108589857
  H        47.7800353125       14.3737263524        6.4953323390
  H        49.0830268271       18.5525312635       10.8672902686
  H        10.4159033834       14.1342868049        7.9987589557
  H        24.4881828830        3.0231102467        3.9230282636
  H        25.6361373992        4.8785664031        2.6981928376
  H        23.2630656281        7.7523747799        4.8446564450
  H        22.1335056865        5.8871800225        6.0715745932
  H        23.8296779963        5.7820731174        1.2690508730
  H        36.3572703759       32.1939814046        3.9847420281
  H        35.2063946561       30.3789940462        2.7184825586
  H        37.4629189406       27.4384507188        4.9006887052
  H        38.5934188732       29.2666817113        6.1774908687
  H        36.9702845303       29.4634492565        1.2977099240
  H        25.7540238982        8.6043244315        4.6523434940
  H        36.4495932381       32.2459014087       12.1077759117
  H        35.3325085581       30.4346208526       13.4058714481
  H        37.5368065188       27.4891818970       11.1755465420
  H        38.6273604035       29.3121835656        9.8633142233
  H        37.0086818456       29.4826459121       14.8509913835
  H        46.1090437228       26.5875563324       11.3855080154
  H        44.6682185475       35.1161375941        7.8139495054
  H        24.4375602379        3.0360286538       12.0838946214
  H        25.5719057058        4.8727629723       13.3360221933
  H        23.1699708257        7.7660468983       11.2489534845
  H        22.0478448100        5.9173341217        9.9960170670
  H        23.8035906965        5.7839334847       14.8207797335
  H        44.9536197373       34.3901593024        9.6950286528
  H        44.9015009578       34.2066062943        6.4907665706
  H        40.6659290863       33.2090666712       10.8531031905
  H        23.1505011789        1.9577621538        8.0053067764
  H        25.7692550382       19.6301613989        3.9082614211
  H        23.5969758569       19.6789816812        2.6788708400
  H        22.3180733264       16.1711144971        4.8129209601
  H        24.4951841805       16.1390352342        6.0440255233
  H        23.7009809385       17.6428665105        1.2368985742
  H        35.1574170474       15.4147210873        4.0486703323
  H        37.2684010988       15.3697345414        2.7173502187
  H        38.6896200445       18.8058191585        4.8799516287
  H        36.5711667655       18.8352438164        6.2093210954
  H        37.2203648935       17.3438965885        1.2577089779
  H        20.3237178739       17.9394260462        4.6462279787
  H        35.2057125001       15.4004831434       12.1021787757
  H        37.3550614072       15.3538270399       13.3659906623
  H        38.6863846234       18.8323047647       11.2152290665
  H        36.5313339226       18.8591945029        9.9429509843
  H        37.2362472486       17.3544432718       14.8059920659
  H        35.1562375129       26.6854699366       11.4037701182
  H        28.5135798358       21.0882461679        7.8733259700
  H        25.7109180452       19.6654414074       12.0946007086
  H        23.5298826823       19.7065872749       13.3190358882
  H        22.3213173808       16.1234892448       11.2718276461
  H        24.5090650467       16.0924294588       10.0547965197
  H        23.6896252042       17.6399262391       14.7855967233
  H        28.9651389487       21.7338307741        9.7700758983
  H        29.1748423644       21.7234799356        6.5378542302
  H        32.0881151931       18.5920383865       10.9770719706
  H        27.4034206453       19.0746408498        8.0715370398
  H        14.8564567356       19.6640423537       12.1130520994
  H        17.0256463023       19.7097109996       13.3499345967
  H        18.2943055460       16.1817883114       11.2422868443
  H        16.1219081995       16.1524591258       10.0045807711
  H        16.9075115502       17.7043799001       14.8123508254
  H        46.0893590126       15.4443386875       12.0711484131
  H        43.9672223241       15.3894707033       13.3813974764
  H        42.5554232111       18.8284685002       11.2165864934
  H        44.6771487461       18.8569145636        9.8948159856
  H        44.0221006496       17.3230340393       14.8471011111
  H        20.2909935273       17.9125874489       11.4014637826
  H        46.0421781928       15.3792878966        4.0435178279
  H        43.9090057831       15.3097035553        2.7512636476
  H        42.5128909449       18.7744691666        4.8834665474
  H        44.6528660471       18.8306375219        6.1762700701
  H        44.0060074887       17.2932172417        1.2961357191
  H        46.1987172531       26.6825756863        4.6232561753
  H        52.7411813624       21.0625601352        8.1945923219
  H        14.8696790631       19.6716068675        3.9003360839
  H        17.0643563690       19.7362929807        2.7045147310
  H        18.3055795758       16.1926362304        4.8014041804
  H        16.1134483610       16.1521586848        6.0073767973
  H        16.9184273162       17.7098264933        1.2610902368
  H        52.3222750183       21.6735506332        6.2946622626
  H        52.0134212221       21.7024770029        9.4954808858
  H        49.0667523368       18.6077637175        5.2043178043
  H        13.2469796136       19.0161216047        7.9757236875
  H        29.9603339733       12.4336788824       12.1961526370
  H        28.8919765151       10.5049738379       13.3856348751
  H        25.2405742221       11.2070851394       11.2270003010
  H        26.3229867007       13.1272499284       10.0425878915
  H        27.1668926931       11.6723207996       14.7932745492
  H        30.9963085819       22.7741437825       12.0047694511
  H        31.9995064060       24.6526517988       13.3060283903
  H        35.6952827323       24.1448366003       11.1653371589
  H        34.6721592495       22.2729216742        9.8593657441
  H        33.6679669429       23.5807447644       14.7556482377
  H        25.7064717195        8.5926403357       11.4065212370
  H        30.9152231573       22.6330457079        3.8760735503
  H        31.9105795513       24.5329103287        2.6011995408
  H        35.5266573054       24.1692886628        4.9028606447
  H        34.5062259958       22.2868273256        6.1898057078
  H        33.6201551710       23.5669272929        1.2044657760
  H        40.5917893425       17.0626960393        4.6691535513
  H        32.5034624831       14.1554646129        8.2500614333
  H        29.8971104468       12.5407468503        3.9083422095
  H        28.8744748845       10.6333140407        2.6584849478
  H        25.2204195932       11.1600765306        4.8645812840
  H        26.2659531767       13.0504033353        6.1240502926
  H        27.1686295401       11.6848777415        1.2414087555
  H        33.3106062587       14.2372674069        6.4753520176
  H        33.4086277734       14.3826930289        9.6061762504
  H        32.1170947328       18.4281437451        5.1489049934
  H        30.1845146631       14.1539167984        8.0933457178
  H        16.1182344580        2.9631434042       12.1294046783
  H        14.9529270371        4.8201486535       13.3221854006
  H        17.3663397471        7.6858383640       11.2104901198
  H        18.5151837276        5.8183764234       10.0106449209
  H        16.7534599095        5.7394459394       14.7714574629
  H        44.8277491506       32.1401961806       11.9770315564
  H        45.9370090944       30.3413066464       13.3065068807
  H        43.6823629292       27.3780885898       11.1522091923
  H        42.5997196688       29.1899828592        9.8095315678
  H        44.2300120869       29.4366348908       14.7688007000
  H        14.8507711417        8.5458373559       11.3633172573
  H        44.8999455475       32.2339842428        3.9320107858
  H        46.0247486731       30.4129047533        2.6524103218
  H        43.7627837456       27.4840601168        4.8449272101
  H        42.6450857443       29.3177907348        6.1240287233
  H        44.2681792181       29.4704151289        1.2181051112
  H        34.9962526056       26.6323031590        4.6450149559
  H        36.6052449287       35.1340500256        8.1806242574
  H        16.1434332928        3.0128352007        3.9043668478
  H        14.9737885021        4.8561784407        2.6885884821
  H        17.3964922516        7.7471244231        4.7546679287
  H        18.5435718258        5.8932044938        5.9822858025
  H        16.7646301792        5.7554298011        1.2192231575
  H        36.2789957869       34.4819848132        6.2733998037
  H        36.3812485415       34.2089040340        9.4994759094
  H        40.5787116737       33.2016115312        5.1539620788
  H        17.4709798729        1.9470410098        7.9741294413
  H        28.6368154846       18.6556779643       12.0149772946
  H        28.8036361813       18.6861558487        3.7886345165
  H        31.7220440844       15.6905620856        3.5896095931
  H        32.1885254653       16.2860164395       12.4878706796
  H        28.4322405113       18.4510251339       14.6260665091
  H        29.8187050301       14.2580582849       14.6081674153
  H        32.3186085695       17.0413257965        1.1598996430
  H        18.8536959631        0.8689736489       12.3353690200
  H        40.5281093747       35.2291150005        3.9521320026
  H        42.3234288127       34.4184150786        3.5907463559
  H        22.0875812789        0.6921790157       12.3513455603
  H        11.5966693792       18.7128886923       12.3825746064
  H        52.2643618854       18.4314566690        3.6771794640
  H        49.2553555898       16.4766894047        3.5841604235
  H        10.1503889252       15.7981979252       12.2923733091
  H        50.8497068478       17.6924358654        3.9541391897
  H        10.0460409310       17.3946600514       12.0519257052
  H        20.2150663311        0.0021918958       12.0419549979
  H        39.1837581371       36.1245509037        3.6864644343
 Ni        30.6088598368       17.5703766556        2.7501476101
 Ni        30.3929082477       16.2818907760        0.0792758884
 Ni        29.9294550599       18.5012301079        0.6635107917
 Ni        30.3533727634       17.4747295025       13.4079439932
  O        10.6498302096       14.3650842477        5.4857638705
  O        12.6130566468       14.6573089091        6.5838019055
  O        49.1477223344       16.8459528289        7.9897580096
  O        50.3500379138       20.9364350827        5.6482882461
  O        48.3484361305       20.5932998834        6.6659897331
  O        11.0510554794       17.0541905381        6.5004839711
  O        50.3207844951       20.8817130526       10.4069108518
  O        48.3466456697       20.5867604846        9.3271090661
  O        49.5433048703       18.2483702257       10.0683932813
  O        12.3584618236       18.6246449169        7.9996693029
  O        48.6932199554       14.1485147246        6.7513258594
  O         8.2097747932       14.2104620900        9.3226122698
  O        10.7352526609       14.5067311043       10.6643653768
  O        12.5716995587       14.5826709060        9.3285726865
  O        22.8444753862        2.0423597437        5.4874146742
  O        21.6058781562        3.5923600498        6.5891970642
  O        42.0580349847       34.1371379421        7.9788942140
  O        37.9813945709       33.1370740967        5.5723179941
  O        39.2167992479       31.5749439946        6.6653461670
  O        20.3083092537        1.0393849449        6.5020575262
  O        38.0245458206       33.1854558805       10.4154476696
  O        39.2183125912       31.5830138062        9.3274249767
  O        40.6521760669       33.7691791095       10.0600822969
  O        18.2556981878        1.3759246414        7.9967783258
  O        44.6222639130       35.1004907852        6.7587466876
  O        24.2054076785       -0.0000216483        9.3207955044
  O        22.7529550631        2.0572257550       10.5836200739
  O        21.6245814476        3.5961338977        9.3429231879
  O        27.4685297237       18.6853420144        5.4262645206
  O        26.6993364956       16.9294242379        6.6633821580
  O        30.6621722522       19.4048608773        8.0178348115
  O        33.5963216832       16.2634092401        5.7449916417
  O        34.2752229751       18.1794408395        6.7469741735
  O        29.5661641407       17.0383713580        6.5851984020
  O        33.5344433414       16.3406114607       10.5710541643
  O        34.2665589504       18.1665194130        9.4155780956
  O        31.6426223162       18.3196081751       10.1588313867
  O        30.2939551525       15.1182682838        8.0969884532
  O        28.5542263423       21.0296964586        6.8257441511
  O        28.5130824015       20.9571428289        9.4000814893
  O        27.4502302087       18.6726497771       10.6576600880
  O        26.6918290376       16.9266526724        9.4103435275
  O        13.1468551481       18.6935170136       10.5862875803
  O        13.9171661828       16.9155939783        9.4031989638
  O        50.5957142184       19.3503288714        8.0205215994
  O        47.6818428710       16.3274093977       10.4175886015
  O        46.9506946424       18.1758735767        9.3252761047
  O        11.0687874748       17.0159771493        9.4896804949
  O        47.6763434643       16.3355006852        5.6533608796
  O        46.9265599062       18.2356883964        6.6642446757
  O        49.5683826159       18.3177955693        5.9822496794
  O        10.3185769519       15.1001418087        7.9971602958
  O        52.6707348846       21.0280458945        9.2417862125
  O        12.1467913090       20.8913603558        6.6732582539
  O        13.1056249899       18.6140364215        5.3260226130
  O        13.9547510562       16.9860425832        6.6657117493
  O        29.9852376395       14.4401840195       10.7330553081
  O        28.0833949787       14.6548459437        9.4965292429
  O        32.0723823216       16.8522513022        8.1044246491
  O        30.9681059648       20.9470518705       10.4102448459
  O        32.9490005434       20.5951745053        9.3364037358
  O        29.5622500812       17.0772305599        9.5812629563
  O        30.8832695665       20.8175700319        5.5794059793
  O        32.8712022492       20.5843731374        6.6652551921
  O        31.6813713214       18.2436164547        5.9982183518
  O        28.2886613721       18.6751820327        8.0626724123
  O        32.4895001711       14.2177106958        9.3310252081
  O        32.4052173759       14.2104157668        6.8279717167
  O        29.9177491641       14.4369227373        5.4894864540
  O        28.0355732100       14.5901648634        6.7489970493
  O        17.8892159722        1.9665770215       10.6627833098
  O        18.9562219414        3.5271507432        9.4079578077
  O        39.1685807620       34.1386063559        7.9970889777
  O        43.2802207088       33.0588344888       10.3316977565
  O        42.0343089838       31.5064265069        9.2415555854
  O        20.3176082459        1.0366934033        9.4801219726
  O        43.2760748502       33.1825196965        5.5748955751
  O        42.0052056116       31.5841066234        6.5830107252
  O        40.5788818604       33.7747797580        5.9357318349
  O        22.3672940178        1.3846550509        7.9979755742
  O        36.6727961038       35.0997015034        9.2332978417
  O        16.4455506861        0.0642101306        6.6682638982
  O        17.9363662239        2.0432417727        5.3264353075
  O        18.9190681456        3.5931251271        6.6658919292
  O        29.7364249343       18.6865009497        4.0728974447
  O        29.5654719679       18.9793422904       12.0790756086
  O        31.3908333878       16.4069136155        4.1612072264
  O        31.2705815002       16.3442381067       12.1661748527
  O        31.5989261656       16.4820416969        1.5095739913
  O        29.3587489715       15.0913537675       14.8233482761
  O        29.3287901794       18.8349664642       14.5686249108
  O        39.4568312563       35.2438900028        4.0019761971
  O        19.1416009951        0.0045771625       11.9904750371
  O        41.9695990622       35.1727416535        4.0870897601
  O        21.6912657654       -0.0694211972       11.8959073688
  O        51.3645118492       18.6143745516        4.0052914220
  O        10.7509005706       18.7472239213       11.9050122141
  O        50.0796545396       16.4127385923        4.0916619664
  O         9.5243873785       16.4831024437       11.9912191482
 Zr         9.2969213306       16.0528054100        6.1822677070
 Zr        49.8359507404       16.0068799509        9.7466127650
 Zr        22.0731964831        0.0298825831        6.1888991020
 Zr        42.4608193410       35.1534905632        9.8008346953
 Zr        29.6023081523       19.0511178730        6.2268304532
 Zr        29.5961703197       19.2027213735        9.8226752801
 Zr        11.0373478924       19.0523824889        9.8276608082
 Zr        11.0433253182       19.1551950596        6.2510787845
 Zr        31.3150182109       16.0929671905        9.9139913133
 Zr        31.3812482113       15.9980569957        6.2784839629
 Zr        18.6011741573       -0.0014810226        9.7634112070
 Zr        18.5065792921       -0.0078966620        6.2135476578
 Zr        12.3006627162       16.3231517136        7.9904093954
 Zr        48.6161603355       18.8331133362        8.0102921080
 Zr        20.3154713509        2.4735898810        7.9904378974
 Zr        40.6429222743       32.6868853977        7.9779043983
 Zr        28.3416586286       16.3270286921        8.0715685582
 Zr        32.6174006229       18.8190028183        8.0428681481
  H        29.2859685516       17.7609353695        1.8139594235
  H        29.3800734647       19.3195051799       13.6408515001
  H        29.4678125399       15.6594874293       13.9966057476
