     574
 i =      196, E =     -4778.9020982724
  C        11.8590332438       14.0535320310        5.7415126363
  C        12.4566308759       12.8907558847        5.0231413459
  C        11.7047335301       12.1712524644        4.0820682014
  C        12.2811762830       11.1090750279        3.3897510233
  C        13.6220089818       10.7398724592        3.6169581943
  C        14.3554824999       11.4441395175        4.5896765281
  C        13.7825232223       12.5091079001        5.2811519042
  C        14.2614569005        9.6491162598        2.8435933874
  C        14.2564418170        9.6568493507        1.4218984096
  C        13.7431704531       10.7589462098        0.6680317311
  C        49.1270516828       21.2331514617        5.8796131967
  C        48.5503229633       22.4012642102        5.1526419659
  C        49.3002712947       23.0684088698        4.1714805503
  C        48.7333521961       24.1075810269        3.4382912480
  C        47.4029215375       24.5094459563        3.6671257177
  C        46.6720991141       23.8608053598        4.6808837137
  C        47.2345345277       22.8158748127        5.4102133339
  C        46.7725940504       25.5870944740        2.8698466935
  C        46.7613937474       25.5573811162        1.4480836725
  C        47.2612744833       24.4422597026        0.7045925263
  C        14.8602589521        8.5704524211        0.7086282830
  C        14.8924347986        8.5972963862        3.5202446407
  C        49.1134321825       21.2033731302       10.1452853626
  C        48.5280536879       22.3648373467       10.8724988110
  C        49.2670958164       23.0250783704       11.8658489034
  C        48.6908375625       24.0596889129       12.5973207226
  C        47.3606755848       24.4570170654       12.3586435249
  C        46.6405208804       23.8126723547       11.3345728855
  C        47.2140183769       22.7767447887       10.6027681918
  C        46.7221823234       25.5319521645       13.1496948872
  C        46.7336449047       25.5281826482       14.5714138631
  C        47.2489960607       24.4289475454       15.3278290429
  C        40.6315605318       17.1207243523       15.3061948791
  C        40.6423393768       17.1895979314       12.4974465454
  C        11.8830962411       14.0865897391       10.2855428377
  C        12.4724334588       12.9109307501       10.9899037822
  C        11.7147702059       12.1774311182       11.9156708184
  C        12.2813550689       11.0949513485       12.5840400090
  C        13.6203147906       10.7215107896       12.3525235917
  C        14.3585077896       11.4374828712       11.3921999278
  C        13.7930885678       12.5186850461       10.7195457988
  C        14.2538173091        9.6246297709       13.1228623052
  C        14.2524118432        9.6444608103       14.5447026334
  C        13.7425445200       10.7534064998       15.2917799752
  C        22.5129508294        3.2456913303        5.7506271888
  C        23.2288773859        4.3485707068        5.0466305326
  C        24.2256238014        4.0630991782        4.1013309120
  C        24.8578117345        5.0981042143        3.4166587799
  C        24.5098818318        6.4426730529        3.6555897602
  C        23.5396485102        6.7195508249        4.6365209065
  C        22.9030451213        5.6862722048        5.3201351724
  C        25.1251582141        7.5459317161        2.8806406635
  C        25.1088347588        7.5379083776        1.4582868322
  C        24.4106345378        6.5398981956        0.7067405810
  C        38.3036690401       31.9309391179        5.8484294408
  C        37.5757346269       30.8421727366        5.1362805687
  C        36.6174054189       31.1473449238        4.1578645390
  C        36.0012386867       30.1279159450        3.4375838577
  C        36.3288731307       28.7788170813        3.6750592387
  C        37.2583477662       28.4810391103        4.6891876924
  C        37.8786512183       29.4991956791        5.4081484913
  C        35.7253644199       27.6875140403        2.8786433408
  C        35.7554076569       27.7008044638        1.4574161760
  C        36.4614048275       28.7019897382        0.7187270448
  C        25.7379955302        8.6070360882        0.7418201807
  C        25.7208982573        8.6204009021        3.5543406437
  C        38.3284414910       31.9622576215       10.1551604132
  C        37.6060556932       30.8877744608       10.8948221548
  C        36.6746410375       31.1944858291       11.8984521317
  C        36.0650895474       30.1744499406       12.6263016701
  C        36.3731222044       28.8226090804       12.3741249253
  C        37.2815056854       28.5257348071       11.3397871020
  C        37.8929608302       29.5422757187       10.6130530772
  C        35.7674115359       27.7228084304       13.1589626631
  C        35.7772397563       27.7186299289       14.5808631033
  C        36.4710725030       28.7110431733       15.3420408784
  C        46.1355772035       26.6207954185       15.2815557777
  C        46.0883831787       26.5804310825       12.4736647391
  C        22.4677658231        3.2577491434       10.2571419983
  C        23.1760386433        4.3647246716       10.9726684602
  C        24.1858083274        4.0745466351       11.9046434581
  C        24.8271882541        5.1013552196       12.5943990058
  C        24.4805105573        6.4502985636       12.3770677350
  C        23.4946254983        6.7337104313       11.4124741562
  C        22.8488944976        5.7071185214       10.7225536088
  C        25.1191491814        7.5448432972       13.1537745622
  C        25.1060975978        7.5368555406       14.5772026040
  C        24.4072101435        6.5405640174       15.3297146149
  C        26.6409407909       17.8270830326        5.7410104732
  C        25.3307821068       17.8844687420        5.0300564936
  C        25.0868994354       18.8566757633        4.0476462643
  C        23.8664104305       18.8879523431        3.3771467531
  C        22.8564975165       17.9453567153        3.6592063004
  C        23.0983015119       16.9959456370        4.6703572818
  C        24.3179913740       16.9630858238        5.3439393670
  C        21.5820547767       17.9316133753        2.8976523335
  C        21.5819709321       17.9002874634        1.4746607376
  C        22.7863739670       17.7566507805        0.7152209127
  C        34.4375030864       17.1860713393        5.8757556714
  C        35.7352296676       17.1126544147        5.1458675610
  C        35.9410907279       16.1370862231        4.1585181055
  C        37.1256581100       16.1179291955        3.4272932078
  C        38.1347154235       17.0704125863        3.6680965024
  C        37.9337479171       18.0218244956        4.6856238870
  C        36.7461079882       18.0484643717        5.4114665712
  C        39.3883574947       17.0819996283        2.8822014720
  C        39.3804408546       17.1135979429        1.4614544662
  C        38.1712724420       17.2517346908        0.7096966171
  C        20.3353545494       17.9271718945        0.7659737556
  C        20.3563972576       17.9428747696        3.5793521172
  C        34.4787718156       17.2591562347       10.1417375159
  C        35.7722980048       17.2054335533       10.8825398929
  C        35.9820071587       16.2248732497       11.8646538279
  C        37.1635869957       16.2089834677       12.5993486488
  C        38.1649489020       17.1731722976       12.3723690409
  C        37.9591206501       18.1328080273       11.3636203916
  C        36.7750771947       18.1533403897       10.6306407735
  C        39.4132203106       17.1787633573       13.1655281403
  C        39.3930239924       17.1652314573       14.5864284433
  C        38.1779734414       17.2769153742       15.3332920860
  C        35.1464044638       26.6408748022       15.2865227440
  C        35.1796382336       26.6497884792       12.4775776001
  C        26.5800604404       17.8284363040       10.3230078429
  C        25.2670829625       17.8658888361       11.0342831951
  C        25.0044194022       18.8632895180       11.9857257994
  C        23.7862957084       18.8856339885       12.6594630484
  C        22.7998170593       17.9116700007       12.4044924937
  C        23.0575495437       16.9386957285       11.4218089185
  C        24.2769972205       16.9132579500       10.7475025708
  C        21.5342185355       17.8939328435       13.1748263502
  C        21.5569138750       17.8812575370       14.5964309497
  C        22.7732941506       17.7493634448       15.3387578231
  C        14.0483629735       17.8294283012       10.2887002499
  C        15.3536978254       17.8876422911       11.0122777209
  C        15.6117988731       18.8912516978       11.9593393660
  C        16.8215975021       18.9124787496       12.6510742958
  C        17.8084840113       17.9328292789       12.4188911400
  C        17.5552524726       16.9540252061       11.4390228669
  C        16.3451088671       16.9282444740       10.7486316992
  C        19.0776392614       17.9137028254       13.1884633291
  C        19.0756716429       17.9124682317       14.6113187612
  C        17.8681760769       17.8214543289       15.3727960012
  C        46.8052955587       17.2182287018       10.1557171755
  C        45.5126158716       17.1576116982       10.8958145054
  C        45.2943796369       16.1701381687       11.8684134618
  C        44.1108259044       16.1567152621       12.6012456635
  C        43.1181685949       17.1318528051       12.3835252958
  C        43.3325818129       18.0980186394       11.3825386749
  C        44.5161571636       18.1143988405       10.6498541567
  C        41.8670556443       17.1507458744       13.1733307354
  C        41.8764044522       17.1329210816       14.5948122888
  C        43.0880490451       17.2101091290       15.3512701356
  C        20.3220678855       17.9163137154       15.3206532262
  C        20.3025484625       17.8890707584       12.5070601579
  C        46.7866939370       17.2305495591        5.8876516971
  C        45.4866532114       17.1194486852        5.1668793533
  C        45.2778474097       16.1174868600        4.2069261157
  C        44.0929210336       16.0814520422        3.4760775602
  C        43.0877835113       17.0442617249        3.6891846888
  C        43.2876404186       18.0171618622        4.6863363899
  C        44.4738073103       18.0596055670        5.4121390590
  C        41.8417014813       17.0585220301        2.8919170803
  C        41.8641055985       17.0833665014        1.4711311957
  C        43.0821149259       17.1865880944        0.7280125949
  C        46.1533268737       26.6372272622        0.7263232515
  C        46.1627448296       26.6562861930        3.5359617184
  C        14.0470293425       17.8327171411        5.7083315773
  C        15.3684721622       17.9090665037        5.0183472538
  C        15.6411898773       18.9243472174        4.0890574399
  C        16.8704635947       18.9635028075        3.4344013895
  C        17.8559586517       17.9864429914        3.6821065053
  C        17.5900886291       17.0005446294        4.6501316090
  C        16.3629956227       16.9609147586        5.3085452813
  C        19.1236694326       17.9610426155        2.9125770117
  C        19.0999139043       17.9353986299        1.4907161990
  C        17.8801687017       17.8315631303        0.7491684756
  C        28.8343069774       14.1224478416       10.3970404354
  C        28.2398479840       12.9431080726       11.0931488556
  C        28.9665711240       12.2040282271       12.0386372117
  C        28.3760459940       11.1180366979       12.6824404690
  C        27.0444399744       10.7448787684       12.4064006660
  C        26.3397630056       11.4659288763       11.4255081242
  C        26.9270603386       12.5510584717       10.7808325278
  C        26.3777017668        9.6566409779       13.1607542376
  C        26.3561005184        9.6811185678       14.5820087895
  C        26.8508155810       10.7954032875       15.3312821476
  C        32.1849920796       21.2381704065       10.1332331126
  C        32.7827245702       22.3983645657       10.8592075189
  C        32.0323413113       23.0787001502       11.8306850915
  C        32.6025677087       24.1170598177       12.5607971762
  C        33.9386311148       24.5033585777       12.3397635966
  C        34.6720835008       23.8409634962       11.3374477259
  C        34.1042051195       22.7969985852       10.6094494466
  C        34.5654524307       25.5807764819       13.1389688421
  C        34.5546839759       25.5558581210       14.5605739495
  C        34.0422095437       24.4438346174       15.3008190895
  C        25.7415558485        8.6026011971       15.2964397699
  C        25.7419764066        8.6069230564       12.4827600055
  C        32.1026910406       21.2325503970        5.8722479140
  C        32.6901770073       22.3884500610        5.1365407160
  C        31.9542962720       23.0533546759        4.1434081866
  C        32.5357204199       24.0823326447        3.4067343500
  C        33.8667337918       24.4768942233        3.6455637014
  C        34.5845962397       23.8277056487        4.6683095755
  C        34.0082225618       22.7928354902        5.3998897017
  C        34.5085161889       25.5553698943        2.8592618517
  C        34.5239949701       25.5434871299        1.4374506768
  C        34.0260078519       24.4385843436        0.6776494309
  C        40.6250930200       17.0946072401        0.7502641888
  C        40.6123550107       17.0733484501        3.5596768150
  C        28.7284259558       14.1000928811        5.7786700428
  C        28.1333633850       12.9418789707        5.0520239906
  C        28.8756214095       12.2417014336        4.0884425164
  C        28.3046607397       11.1717512957        3.4036526610
  C        26.9745445023       10.7771649625        3.6532626572
  C        26.2507345317       11.4638753613        4.6462811506
  C        26.8206927951       12.5320707071        5.3357370078
  C        26.3385185122        9.6824607066        2.8805962015
  C        26.3366543152        9.6952268065        1.4583457711
  C        26.8386057187       10.8040817399        0.7070837620
  C        18.1355375930        3.1811950645       10.3170957580
  C        17.4061603392        4.2783763264       11.0155070261
  C        16.3903922596        3.9999526149       11.9429871796
  C        15.7426642158        5.0398841265       12.6065221003
  C        16.0945746590        6.3836452941       12.3669542812
  C        17.0839554721        6.6532266469       11.4031930696
  C        17.7330783451        5.6159363409       10.7380821077
  C        15.4701983098        7.4912715902       13.1300670085
  C        15.4853401969        7.4904242778       14.5517890392
  C        16.1868911309        6.4967963017       15.3049491511
  C        42.9459581219       31.8596811782       10.0729251660
  C        43.6464394923       30.7720137653       10.8168797555
  C        44.5916552970       31.0933932317       11.8032268097
  C        45.1974426238       30.0878761926       12.5508828046
  C        44.8713992456       28.7347627779       12.3357580764
  C        43.9459263344       28.4203799341       11.3222316983
  C        43.3370345949       29.4254878423       10.5742079784
  C        45.4889633150       27.6554424538       13.1389361414
  C        45.4929120898       27.6809487689       14.5606331164
  C        44.8057191545       28.6889227667       15.3072594500
  C        14.8563918595        8.5628992493       15.2641978684
  C        14.8750772347        8.5631658264       12.4515153908
  C        42.9465320016       31.9617818246        5.8090043820
  C        43.6918598732       30.8856335604        5.0955598607
  C        44.6561980163       31.1915501006        4.1230181784
  C        45.2777548486       30.1719649501        3.4053026171
  C        44.9542691767       28.8216197138        3.6431735798
  C        44.0211003448       28.5239595939        4.6542513215
  C        43.3928121785       29.5407197700        5.3664180133
  C        45.5632617856       27.7241921763        2.8579180750
  C        45.5333702611       27.7173935610        1.4366206622
  C        44.8269734672       28.7075606309        0.6836533973
  C        35.1330590049       26.6331613486        0.7313703950
  C        35.1207079441       26.6135358843        3.5411163864
  C        18.1488917937        3.2471442494        5.7067060386
  C        17.4304391289        4.3439760653        4.9974257567
  C        16.4150313892        4.0527349581        4.0740305683
  C        15.7667865315        5.0833656905        3.3986066304
  C        16.1216562944        6.4286006943        3.6210926290
  C        17.1132848629        6.7119610623        4.5781076068
  C        17.7609055953        5.6830474428        5.2579359377
  C        15.4910451284        7.5242401203        2.8486431900
  C        15.4965828125        7.5074072370        1.4275064793
  C        16.1932207981        6.5056531678        0.6807654942
  H        10.6724021155       12.4649159090        3.9054903876
  H        11.6947801815       10.5501318689        2.6636560188
  H        15.3928102718       11.1702431129        4.7707753651
  H        14.3523138276       13.0729408193        6.0158703500
  H        13.3763478436       11.6311354522        1.2013690585
  H        50.3229079052       22.7482066015        3.9865900220
  H        49.3198197990       24.6227051794        2.6806010840
  H        45.6427334826       24.1618572545        4.8643006864
  H        46.6636774493       22.2908113995        6.1725442345
  H        47.6299186464       23.5759301890        1.2462836369
  H        14.8731907203        8.5888021650        4.6085599788
  H        50.2869619213       22.7018218491       12.0610648599
  H        49.2691929916       24.5748067153       13.3610828104
  H        45.6113941629       24.1105393627       11.1449876087
  H        46.6534730591       22.2551268807        9.8306352098
  H        47.6078651808       23.5518566651       14.7969475501
  H        40.6455832527       17.1712181118       11.4093001112
  H        48.6874393468       14.0949339984        7.8001029807
  H        10.6811922517       12.4662684388       12.0928111660
  H        11.6894989766       10.5243145589       13.2964863030
  H        15.3941437751       11.1600606616       11.2067107767
  H        14.3657028855       13.0884379318        9.9915296464
  H        13.3758505014       11.6220834860       14.7531534242
  H        47.9302641708       14.2190299644        9.7108137137
  H        47.7802972120       14.3747098246        6.4958268657
  H        49.0847884875       18.5524745191       10.8673751250
  H        10.4165987163       14.1342987925        7.9989069714
  H        24.4838196043        3.0231925667        3.9139742265
  H        25.6316142848        4.8743592889        2.6854773688
  H        23.2618462641        7.7539502470        4.8281453448
  H        22.1330100287        5.8929817797        6.0594718226
  H        23.8451962046        5.7833077485        1.2429805372
  H        36.3803948563       32.1908402574        3.9643437842
  H        35.2572199192       30.3673778674        2.6810373986
  H        37.5186867633       27.4417197990        4.8785509638
  H        38.6218326510       29.2780992553        6.1705460977
  H        37.0267907528       29.4523323686        1.2636957576
  H        25.7483754340        8.6039928689        4.6424185326
  H        36.4495535145       32.2382228750       12.1057860570
  H        35.3375268257       30.4175158299       13.3975381271
  H        37.5309192578       27.4860617152       11.1382590199
  H        38.6172190691       29.3185271578        9.8336271776
  H        37.0448414576       29.4680163003       14.8151625202
  H        46.1101153828       26.5880182305       11.3856362026
  H        44.6682954455       35.1161594368        7.8139657362
  H        24.4589017492        3.0349287721       12.0711092908
  H        25.6121510865        4.8663377743       13.3101379298
  H        23.2134486035        7.7695633640       11.2334994371
  H        22.0723436590        5.9263931817        9.9932604650
  H        23.8387474048        5.7850352243       14.7951975661
  H        44.9536637354       34.3903079207        9.6951548985
  H        44.9013355237       34.2067555471        6.4905902429
  H        40.6661341439       33.2096811529       10.8533333360
  H        23.1511173673        1.9581479877        8.0044546645
  H        25.8668478549       19.5790480355        3.8199166438
  H        23.6827325153       19.6489698154        2.6219553869
  H        22.3317342440       16.2579267865        4.8975206322
  H        24.5140189506       16.2155557933        6.1089082288
  H        23.7263918896       17.6191260212        1.2424746032
  H        35.1551539045       15.4088878511        3.9717553935
  H        37.2851744058       15.3579718562        2.6654074446
  H        38.7070167123       18.7633767189        4.8752787326
  H        36.5708231420       18.7993723680        6.1782608302
  H        37.2345275051       17.3712412910        1.2467305280
  H        20.3631825354       17.9884986958        4.6670176139
  H        35.2037203126       15.4864270429       12.0430575146
  H        37.3275322752       15.4416919478       13.3528557898
  H        38.7256654066       18.8841048198       11.1850742960
  H        36.5964325722       18.9084873011        9.8686626284
  H        37.2462406540       17.4167974668       14.7930190330
  H        35.1528766770       26.6733697983       11.3898032983
  H        28.4980440291       21.0749145789        7.8706468154
  H        25.7669259876       19.6151804160       12.1767211849
  H        23.5830388006       19.6630785286       13.3927674538
  H        22.3050606011       16.1793733508       11.2188750757
  H        24.4903979325       16.1505751498       10.0024371488
  H        23.7032542716       17.6086876165       14.7960595728
  H        28.9973316755       21.7263134986        9.7398096845
  H        29.1884987046       21.7228597234        6.5633064922
  H        32.1397364261       18.6024737740       10.8887243882
  H        27.4016051542       19.0625273809        8.0152540730
  H        14.8537648381       19.6505314050       12.1383224257
  H        17.0171471141       19.6972699172       13.3786704906
  H        18.3061611029       16.1896076804       11.2498714289
  H        16.1391860597       16.1587154992       10.0084229485
  H        16.9249073863       17.7103120733       14.8459832907
  H        46.0694446262       15.4278238138       12.0439889111
  H        43.9407363040       15.3842896762       13.3480395377
  H        42.5733678923       18.8582302258       11.2108905161
  H        44.7003534993       18.8741686230        9.8939934998
  H        44.0290822060       17.3224624126       14.8204360877
  H        20.2974374739       17.9200875948       11.4189280796
  H        46.0598928421       15.3813697049        4.0355535433
  H        43.9334653122       15.3036220501        2.7324450686
  H        42.5159440159       18.7651271012        4.8558955310
  H        44.6496059591       18.8291849405        6.1597928781
  H        44.0186491282       17.2804097659        1.2701318481
  H        46.1998605899       26.6829770517        4.6233945862
  H        52.7414206817       21.0627163668        8.1947228530
  H        14.8798855563       19.6770356690        3.8962782441
  H        17.0799664621       19.7542991766        2.7172706457
  H        18.3417376657       16.2396540556        4.8501433421
  H        16.1438824843       16.1862782254        6.0394060196
  H        16.9457640604       17.7282151136        1.2925514344
  H        52.3230244583       21.6734494664        6.2940604269
  H        52.0135267802       21.7022498432        9.4956618504
  H        49.0685783520       18.6077290374        5.2035361201
  H        13.2480956021       19.0158741816        7.9774047608
  H        29.9926950334       12.4917080556       12.2565317432
  H        28.9431551229       10.5461146274       13.4137416064
  H        25.3105020112       11.1912911421       11.2039262882
  H        26.3778331985       13.1258927528       10.0395024450
  H        27.2130634925       11.6667458449       14.7942692661
  H        31.0052584938       22.7688813528       12.0074420097
  H        32.0153155977       24.6445475070       13.3093056944
  H        35.7061260038       24.1303561786       11.1614325063
  H        34.6752419964       22.2610198936        9.8547828277
  H        33.6847932177       23.5749354055       14.7556800816
  H        25.7751773814        8.5903025146       11.3947247562
  H        30.9292072363       22.7441513306        3.9535541277
  H        31.9589706528       24.5979449805        2.6419539718
  H        35.6145708405       24.1222833945        4.8586389690
  H        34.5686522228       22.2683287013        6.1702346199
  H        33.6563581714       23.5653931593        1.2077530327
  H        40.6075365387       17.0274079668        4.6470180273
  H        32.5128224204       14.1513430106        8.2267946167
  H        29.9013669787       12.5465401925        3.8942261499
  H        28.8881717337       10.6254600741        2.6658083069
  H        25.2213094165       11.1735995235        4.8460007876
  H        26.2565894002       13.0779978934        6.0881206984
  H        27.1883994763       11.6829323109        1.2409376837
  H        33.2922041535       14.1979325537        6.4371914622
  H        33.4133006125       14.3758853935        9.5952338211
  H        32.0552809923       18.5109496605        5.0530068324
  H        30.2320806516       14.1951302496        8.0617619717
  H        16.1183379040        2.9634464991       12.1293643744
  H        14.9532418039        4.8204757653       13.3222005332
  H        17.3665012076        7.6860975618       11.2102123952
  H        18.5152071434        5.8187222182       10.0103677274
  H        16.7535152501        5.7395092699       14.7714497497
  H        44.8276694853       32.1405066919       11.9776089551
  H        45.9371003196       30.3417095855       13.3070058409
  H        43.6836184448       27.3782608260       11.1518336044
  H        42.6007402194       29.1901231475        9.8092442632
  H        44.2304205697       29.4367235659       14.7689435290
  H        14.8515655044        8.5466060163       11.3632870079
  H        44.8995576512       32.2342453454        3.9313987387
  H        46.0244806436       30.4132386819        2.6519000795
  H        43.7644768955       27.4841999430        4.8460954851
  H        42.6466151984       29.3179401908        6.1251632541
  H        44.2684912980       29.4704727884        1.2182279119
  H        35.0793161338       26.6276353184        4.6286002809
  H        36.6052771885       35.1342452165        8.1806199319
  H        16.1437400793        3.0131889418        3.9044814423
  H        14.9743269754        4.8565602446        2.6886614965
  H        17.3971002878        7.7473928483        4.7547300054
  H        18.5440123638        5.8935761703        5.9824302227
  H        16.7648024664        5.7554930424        1.2191560562
  H        36.2789428482       34.4826046187        6.2731704762
  H        36.3813407999       34.2090843877        9.4995379312
  H        40.5809762195       33.2036045919        5.1533173766
  H        17.4714959804        1.9480273874        7.9744425472
  H        29.2331304446       19.4398967844       12.4331241000
  H        29.7249284298       19.7242702821        3.4440844604
  H        30.4707663320       15.8272084195        3.6636522273
  H        31.0760375909       15.5144842461       12.2957321397
  H        28.0114746267       17.8271400888       14.2228929172
  H        29.2908165356       15.7643072472       14.5109263609
  H        31.4770613740       19.5105142852        0.9507997552
  H        32.3774116094       16.3300202922        1.7179001755
  H        28.2495779901       17.5893876105        3.0408776513
  H        33.5314353858       16.7309945667       14.8350518437
  H        18.8538213554        0.8691089311       12.3353921521
  H        40.5277086354       35.2288142765        3.9518693683
  H        42.3250248327       34.4196404982        3.5901095352
  H        22.0877396071        0.6922407974       12.3517288163
  H        11.5968588699       18.7127406145       12.3826787286
  H        52.2651941285       18.4316065081        3.6772085800
  H        49.2553913531       16.4770875392        3.5844223371
  H        10.1496134399       15.7982723116       12.2932024575
  H        50.8505684307       17.6923973767        3.9540966866
  H        10.0459799386       17.3945609415       12.0519277064
  H        20.2151937211        0.0024174149       12.0419920798
  H        39.1835412627       36.1241995306        3.6862252284
 Ni        30.9032082935       17.8886684517        2.5072514256
 Ni        31.1108694021       16.6476735986       -0.2542561661
 Ni        29.7603294948       18.5490398014       -0.2479696928
 Ni        30.0520454347       17.4015879336       12.9163800349
  O        10.6500898092       14.3650705903        5.4858699896
  O        12.6132494076       14.6575447275        6.5839337072
  O        49.1480472511       16.8458570451        7.9897282514
  O        50.3503255277       20.9357910974        5.6479620416
  O        48.3485727629       20.5933137296        6.6658449279
  O        11.0521828855       17.0536682224        6.5008322940
  O        50.3210985203       20.8816350595       10.4068484848
  O        48.3467714321       20.5867305228        9.3271293071
  O        49.5443782414       18.2484272585       10.0680614767
  O        12.3593368601       18.6246753321        7.9997309969
  O        48.6933127692       14.1484543255        6.7513691138
  O         8.2099553820       14.2104587937        9.3225682934
  O        10.7352898276       14.5067438517       10.6642879849
  O        12.5718282289       14.5828279198        9.3285117453
  O        22.8451085263        2.0437169028        5.4869435673
  O        21.6071547753        3.5934804003        6.5882841288
  O        42.0583935217       34.1377727032        7.9791071702
  O        37.9818551478       33.1390209932        5.5726872334
  O        39.2180911011       31.5764239476        6.6666262104
  O        20.3087748277        1.0405005132        6.5024958438
  O        38.0246357347       33.1856785263       10.4152090062
  O        39.2194288634       31.5839347237        9.3261608603
  O        40.6524073453       33.7697168879       10.0602708694
  O        18.2558730250        1.3764157186        7.9969064334
  O        44.6221769508       35.1005989113        6.7587837340
  O        24.2054132485        0.0000374042        9.3207775778
  O        22.7536942415        2.0582522965       10.5846030863
  O        21.6264759188        3.5982074637        9.3464712407
  O        27.5439916531       18.6812810016        5.4112771894
  O        26.7683500662       16.9327858575        6.6479536676
  O        30.6678880292       19.4019274054        7.9842634218
  O        33.5776469792       16.2679996745        5.6469467795
  O        34.2727987802       18.1775665746        6.6635086685
  O        29.5869472390       17.0629954675        6.5620581362
  O        33.6233612354       16.3415982985       10.3988656363
  O        34.3133306333       18.2346657578        9.3313612355
  O        31.7131526110       18.3146089601       10.0655961974
  O        30.3261790261       15.1619658043        8.0641188410
  O        28.5540364931       21.0294718359        6.8229620589
  O        28.5121379947       20.9565892421        9.3973139688
  O        27.4657934989       18.6799701405       10.6524702822
  O        26.6985957261       16.9297491681        9.4078498554
  O        13.1494364841       18.6927987362       10.5874862743
  O        13.9198136686       16.9163482819        9.4052318791
  O        50.5965895547       19.3502460549        8.0203886521
  O        47.6828425039       16.3270968712       10.4170966139
  O        46.9526756535       18.1764489328        9.3234853966
  O        11.0703121243       17.0152495817        9.4895307214
  O        47.6775969231       16.3352110017        5.6535909731
  O        46.9253272974       18.2354588137        6.6630872039
  O        49.5689353244       18.3177051036        5.9822448456
  O        10.3188271750       15.1001048567        7.9971059216
  O        52.6707790540       21.0278439924        9.2418148244
  O        12.1468509877       20.8912142309        6.6733146348
  O        13.1082679853       18.6137272942        5.3255323333
  O        13.9578947607       16.9875408031        6.6648379299
  O        30.0167154853       14.5046176010       10.7253760768
  O        28.0983180506       14.6562467056        9.4952214520
  O        32.1384539865       16.8580342225        7.9957030927
  O        30.9684118921       20.9546120503       10.3938528820
  O        32.9508407251       20.5973644824        9.3281646769
  O        29.5724660526       17.0815719321        9.5613422140
  O        30.8734201593       20.9441142249        5.6512463689
  O        32.8768668453       20.5912853369        6.6579379504
  O        31.6835145653       18.2506645184        5.9141475172
  O        28.2928602387       18.6768008107        8.0037076170
  O        32.4934069413       14.2140565119        9.3166247768
  O        32.3973819357       14.2196147397        6.8157177198
  O        29.8826316575       14.5158715014        5.4063768805
  O        28.0468103305       14.5863385759        6.7458123231
  O        17.8893675741        1.9667490868       10.6627521103
  O        18.9565028968        3.5272239263        9.4079366626
  O        39.1686701303       34.1389385466        7.9972850081
  O        43.2802561951       33.0590603058       10.3317332000
  O        42.0345963460       31.5064793712        9.2416576535
  O        20.3180989118        1.0373030947        9.4797869511
  O        43.2760834206       33.1827058982        5.5749135189
  O        42.0053066934       31.5841487546        6.5829682536
  O        40.5790555419       33.7752853089        5.9361532098
  O        22.3676573145        1.3853227323        7.9980964885
  O        36.6728510666       35.0998454505        9.2333085041
  O        16.4456704099        0.0644925071        6.6683773103
  O        17.9365525438        2.0434420843        5.3264988852
  O        18.9194283108        3.5931217403        6.6660451410
  O        29.9437572456       18.8952626150        3.9064809328
  O        29.9113700427       18.9803683965       11.9000221373
  O        31.2108467527       16.4221242199        3.8966837039
  O        31.3960275658       16.3901881240       11.9881210309
  O        32.0668878810       17.1373576069        1.2577358929
  O        27.9190742319       16.9986498305        2.3342112510
  O        30.2015285045       15.9778488460       14.2384658743
  O        32.8696525907       16.0424261425       14.6512540557
  O        30.5776973645       19.2653875419        1.2466280306
  O        28.8533156646       18.3136464558       14.1559396896
  O        39.4566121698       35.2436099151        4.0019945202
  O        19.1417652137        0.0047015755       11.9905104283
  O        41.9694860067       35.1726349978        4.0872203227
  O        21.6913977592       -0.0692262647       11.8960404706
  O        51.3652536701       18.6143340202        4.0053804613
  O        10.7511356263       18.7470978745       11.9049331663
  O        50.0797913273       16.4127555054        4.0916527018
  O         9.5240044343       16.4831627345       11.9911830261
 Zr         9.2982958891       16.0525336772        6.1825678112
 Zr        49.8376719637       16.0066952059        9.7462293729
 Zr        22.0733445127        0.0309001879        6.1889189818
 Zr        42.4611565661       35.1544330668        9.8013245649
 Zr        29.6196276210       19.0656348019        6.1869281941
 Zr        29.5936092267       19.1941623683        9.7806605553
 Zr        11.0393720187       19.0515806302        9.8279591108
 Zr        11.0452328780       19.1545115939        6.2506805387
 Zr        31.3826558264       16.1236489022        9.7916475645
 Zr        31.3895373557       16.0233980114        6.1907483242
 Zr        18.6015791558       -0.0005334408        9.7632388161
 Zr        18.5068562024       -0.0065162514        6.2141063065
 Zr        12.3040735312       16.3237191343        7.9902446107
 Zr        48.6180236739       18.8332740578        8.0097093657
 Zr        20.3168864286        2.4754026988        7.9911964739
 Zr        40.6440854879       32.6879072608        7.9782976188
 Zr        28.3451305875       16.3461683100        8.0761145240
 Zr        32.6406552645       18.8465388008        7.9975342180
  H        32.5738302804       16.2097084228       13.7212457870
  H        28.4737355271       17.2496833888        1.5658592800
