     569
 i =       97, E =     -4729.4872280580
  C        11.8583006929       14.0537479048        5.7416469659
  C        12.4558817809       12.8905397631        5.0232601342
  C        11.7044582328       12.1722853993        4.0809355387
  C        12.2807461587       11.1099997467        3.3885626913
  C        13.6209771488       10.7394610020        3.6169894029
  C        14.3538099161       11.4423109958        4.5912257280
  C        13.7809911904       12.5073470576        5.2827297023
  C        14.2606087438        9.6488383570        2.8436134053
  C        14.2563456759        9.6568864828        1.4218961423
  C        13.7433597041       10.7590774962        0.6679492935
  C        49.1264060688       21.2333355272        5.8799012268
  C        48.5495525360       22.4011486290        5.1526338458
  C        49.2997694566       23.0687962313        4.1720139584
  C        48.7328243550       24.1078843208        3.4387673501
  C        47.4021203667       24.5091544742        3.6670443072
  C        46.6708895787       23.8598130876        4.6800347435
  C        47.2333418398       22.8149015748        5.4094020557
  C        46.7720419555       25.5869464990        2.8697628570
  C        46.7612472942       25.5574542459        1.4479941174
  C        47.2610385894       24.4422602994        0.7045481780
  C        14.8603343669        8.5705376056        0.7086664067
  C        14.8911340816        8.5967240933        3.5202588972
  C        49.1129600501       21.2033586191       10.1453177260
  C        48.5275848827       22.3646719219       10.8726301943
  C        49.2670400937       23.0257936375       11.8650952047
  C        48.6907076631       24.0603281235       12.5965795241
  C        47.3601144293       24.4567014755       12.3587168735
  C        46.6393808001       23.8112586077       11.3357843507
  C        47.2129098417       22.7752920177       10.6040416644
  C        46.7218006487       25.5317972769       13.1496978161
  C        46.7336170034       25.5282862088       14.5713993014
  C        47.2488509917       24.4289764757       15.3277825678
  C        40.6171489112       17.0735087073       15.3040985555
  C        40.6259859835       17.0994899765       12.4925094380
  C        11.8826334598       14.0866218544       10.2853661997
  C        12.4719699108       12.9104820478       10.9895848087
  C        11.7146120768       12.1777958328       11.9161713086
  C        12.2810686550       11.0952789892       12.5846716610
  C        13.6196084434       10.7209422456       12.3523412451
  C        14.3573648913       11.4359170423       11.3909329145
  C        13.7920481477       12.5171562038       10.7182209205
  C        14.2532582982        9.6242279780       13.1227923641
  C        14.2524640200        9.6444397570       14.5446433931
  C        13.7427841235       10.7534997489       15.2916913635
  C        22.5131522168        3.2470235393        5.7540520869
  C        23.2284451126        4.3565014119        5.0581252718
  C        24.2301184932        4.0830746345        4.1147833355
  C        24.8567229317        5.1266952621        3.4377980047
  C        24.4986733781        6.4676723584        3.6831441653
  C        23.5246157497        6.7325861062        4.6631626903
  C        22.8935767827        5.6906250795        5.3386929289
  C        25.1039921744        7.5768454670        2.9090977943
  C        25.0809226575        7.5661479827        1.4856163596
  C        24.3758549157        6.5686144634        0.7426538444
  C        38.3022045349       31.9298046158        5.8489194640
  C        37.5726216967       30.8410606840        5.1403369330
  C        36.6140388033       31.1442522367        4.1610019040
  C        35.9978415316       30.1237411818        3.4425876610
  C        36.3244623565       28.7741497333        3.6816027989
  C        37.2529066342       28.4788197440        4.6980157124
  C        37.8735229191       29.4979084303        5.4151599606
  C        35.7241849527       27.6819754475        2.8847494186
  C        35.7492645873       27.6995160305        1.4616077794
  C        36.4499270827       28.7031883122        0.7242810515
  C        25.7108217689        8.6310569300        0.7634175193
  C        25.6995093168        8.6531502799        3.5775571441
  C        38.3274226546       31.9616102180       10.1554914945
  C        37.6038976738       30.8893457256       10.8941985098
  C        36.6778209929       31.1974489532       11.9030082820
  C        36.0677642263       30.1788120500       12.6317772195
  C        36.3680390382       28.8253823609       12.3758577559
  C        37.2702872705       28.5277557919       11.3355298448
  C        37.8829706128       29.5427709672       10.6082026838
  C        35.7629908811       27.7261635414       13.1603797780
  C        35.7691904126       27.7221711587       14.5840746502
  C        36.4590923575       28.7144399298       15.3462958545
  C        46.1357701785       26.6210387173       15.2814889934
  C        46.0877940259       26.5800941892       12.4736117931
  C        22.4614962777        3.2573480437       10.2609515552
  C        23.1555893162        4.3658770009       10.9878398262
  C        24.1488240644        4.0785702214       11.9381884785
  C        24.7770251998        5.1072242615       12.6370379289
  C        24.4348561076        6.4555454192       12.4082926909
  C        23.4639612619        6.7356941113       11.4273505573
  C        22.8301972075        5.7071199584       10.7300422941
  C        25.0693022552        7.5538692460       13.1810830823
  C        25.0635418539        7.5534651623       14.6057122918
  C        24.3652381726        6.5636292807       15.3647678174
  C        26.5917935756       17.8689864489        5.7943072629
  C        25.2885039773       17.9216879244        5.0876830922
  C        25.0394271879       18.9054993376        4.1139055521
  C        23.8334747931       18.9190547961        3.4197385189
  C        22.8341061467       17.9565129853        3.6758383322
  C        23.0759827722       17.0020700865        4.6844577466
  C        24.2855839713       16.9781752074        5.3744127806
  C        21.5689074884       17.9369454638        2.9041643270
  C        21.5738694488       17.9274340619        1.4798507391
  C        22.7797600968       17.8070147060        0.7215555710
  C        34.4562505188       17.2106293350        5.9236194221
  C        35.7357482983       17.1605088853        5.1791600781
  C        35.9281060370       16.2015422636        4.1686060273
  C        37.1046205055       16.1882200309        3.4281328773
  C        38.1288764728       17.1253550500        3.6778674712
  C        37.9395304521       18.0597273679        4.7170723066
  C        36.7579809350       18.0853183565        5.4516496784
  C        39.3774731325       17.1297567008        2.8880620044
  C        39.3674602215       17.1190769858        1.4630008359
  C        38.1613836405       17.2406423155        0.7081907649
  C        20.3285575337       17.9470310384        0.7682927550
  C        20.3416177860       17.9275550116        3.5826000695
  C        34.4393467164       17.2391467852       10.1866376549
  C        35.7351731034       17.1345222295       10.9036694052
  C        35.9275861384       16.1722826059       11.9082505472
  C        37.1173131694       16.1395398664       12.6293066393
  C        38.1482684999       17.0654053416       12.3681579295
  C        37.9618534125       17.9966100377       11.3271767232
  C        36.7710246761       18.0371629123       10.6100060093
  C        39.3956149458       17.0813585808       13.1601457861
  C        39.3769023590       17.0954510524       14.5843884574
  C        38.1655077466       17.2276575943       15.3296020778
  C        35.1411351567       26.6414647374       15.2887662836
  C        35.1796450613       26.6512715293       12.4783586194
  C        26.5640511080       17.8387596681       10.3304591099
  C        25.2534035072       17.8868394144       11.0285183780
  C        24.9996984391       18.8844268836       11.9836615872
  C        23.7838287589       18.9117842343       12.6588567616
  C        22.7914139816       17.9431218118       12.4041180549
  C        23.0395736249       16.9732726352       11.4150739979
  C        24.2562084529       16.9418976569       10.7379103844
  C        21.5296901042       17.9247936989       13.1774626334
  C        21.5535782233       17.9189466958       14.6001342304
  C        22.7696634845       17.8026744363       15.3440970891
  C        14.0468179555       17.8302326884       10.2876338022
  C        15.3524874031       17.8911486063       11.0111302077
  C        15.6069965606       18.8954309301       11.9583315337
  C        16.8158705843       18.9197868386       12.6511180047
  C        17.8054748504       17.9430240098       12.4187507681
  C        17.5559835577       16.9634754825       11.4386859021
  C        16.3462362489       16.9344054958       10.7477225829
  C        19.0735237778       17.9286279088       13.1889646428
  C        19.0713021583       17.9280655721       14.6125570427
  C        17.8639488655       17.8271742274       15.3709993919
  C        46.8005783107       17.2140437827       10.1550761448
  C        45.5059283463       17.1389251960       10.8897651887
  C        45.3051262437       16.1612568663       11.8773413344
  C        44.1207898590       16.1318723199       12.6081993077
  C        43.1034662717       17.0787363337       12.3747857706
  C        43.3001321481       18.0323639127       11.3565344600
  C        44.4859687826       18.0667635892       10.6271051176
  C        41.8523348811       17.0847300329       13.1658921805
  C        41.8623536551       17.0846490917       14.5908307568
  C        43.0710920466       17.1850697805       15.3447769351
  C        20.3174725929       17.9419376336       15.3229329279
  C        20.2985246131       17.9079931120       12.5091950969
  C        46.7844595946       17.2324129622        5.8855976473
  C        45.4848416447       17.1292058547        5.1657910102
  C        45.2699671671       16.1371073135        4.1960559487
  C        44.0839483228       16.1123505585        3.4670141631
  C        43.0794757958       17.0756991839        3.6889177890
  C        43.2859957356       18.0377687542        4.6964676627
  C        44.4732799086       18.0695419178        5.4204935013
  C        41.8328082540       17.0968806119        2.8943045013
  C        41.8523510366       17.0893648292        1.4698643190
  C        43.0663327461       17.1842122232        0.7239030180
  C        46.1534669886       26.6374631004        0.7262403725
  C        46.1620676737       26.6560457690        3.5358767175
  C        14.0430289023       17.8303495184        5.7086521649
  C        15.3622799521       17.9023663194        5.0158736182
  C        15.6364173662       18.9205342088        4.0907878102
  C        16.8645492897       18.9570723902        3.4350064368
  C        17.8448862871       17.9744687932        3.6792525128
  C        17.5768701027       16.9839061215        4.6413246442
  C        16.3508715210       16.9471232537        5.3008342714
  C        19.1123051468       17.9517564800        2.9127858031
  C        19.0916622794       17.9393855801        1.4902018000
  C        17.8740461023       17.8322724621        0.7480568173
  C        28.8101345577       14.0758474637       10.3700409756
  C        28.2091736847       12.9032580766       11.0549699324
  C        28.9324765311       12.1760858752       12.0135384933
  C        28.3350402831       11.1069148128       12.6754298605
  C        27.0010964759       10.7368339008       12.4039602190
  C        26.3026164333       11.4420451764       11.4062462669
  C        26.8951876938       12.5134093669       10.7442631087
  C        26.3314375184        9.6627681496       13.1723377796
  C        26.3213068473        9.6939847467       14.5950491570
  C        26.8241998487       10.8076973257       15.3379591538
  C        32.1796900733       21.2421327881       10.1440948049
  C        32.7756941919       22.4006370496       10.8617695734
  C        32.0350908414       23.0656029450       11.8524773478
  C        32.6071457463       24.1040490734       12.5791573405
  C        33.9353823358       24.5078301815       12.3383176875
  C        34.6569328585       23.8614974730       11.3159046751
  C        34.0886136193       22.8167876633       10.5905790213
  C        34.5644751585       25.5818521829       13.1379384975
  C        34.5545303621       25.5542523970       14.5613115864
  C        34.0556005087       24.4367550445       15.2994883997
  C        25.7067908402        8.6206247838       15.3174521158
  C        25.6878665079        8.6130293407       12.5028242142
  C        32.1147009323       21.2357671330        5.8831484338
  C        32.7007380802       22.3791599356        5.1434478632
  C        31.9782847361       23.0083175878        4.1154172284
  C        32.5585626855       24.0368113657        3.3795441343
  C        33.8738463833       24.4681570894        3.6490968844
  C        34.5756970506       23.8519037112        4.7050498427
  C        34.0031491830       22.8167506283        5.4370211519
  C        34.5143056387       25.5446264940        2.8632042770
  C        34.5278543302       25.5354105139        1.4390648110
  C        34.0423478748       24.4280147129        0.6774682818
  C        40.6118368363       17.0808576155        0.7501044453
  C        40.6045799946       17.1403029577        3.5621507225
  C        28.7694209612       14.0942543252        5.7950812219
  C        28.1685222354       12.9379774305        5.0910124701
  C        28.8875506283       12.2491849791        4.0966887285
  C        28.2985590716       11.1978541118        3.4019961257
  C        26.9731906332       10.7941989571        3.6735001090
  C        26.2784426455       11.4594647752        4.7050353597
  C        26.8614074297       12.5166183557        5.3985968043
  C        26.3226132742        9.7116242221        2.8998799220
  C        26.3177618173        9.7190870656        1.4748275246
  C        26.8192352592       10.8211533294        0.7153851350
  C        18.1353293011        3.1807105606       10.3170963649
  C        17.4057868492        4.2779802647       11.0156160837
  C        16.3906669704        3.9994470001       11.9437197003
  C        15.7428426540        5.0393170466       12.6073135360
  C        16.0939967359        6.3831384608       12.3671095079
  C        17.0826758714        6.6527830742       11.4026459411
  C        17.7319035665        5.6155604539       10.7375415012
  C        15.4697167677        7.4908388494       13.1301621179
  C        15.4853905937        7.4903858739       14.5518727631
  C        16.1870930413        6.4968920522       15.3050764336
  C        42.9459562412       31.8594500870       10.0728720405
  C        43.6463339645       30.7719197572       10.8168221252
  C        44.5919698534       31.0932303638       11.8028136894
  C        45.1976634467       30.0876727524       12.5504388354
  C        44.8711683503       28.7345996654       12.3356477081
  C        43.9451993012       28.4202846402       11.3225614735
  C        43.3363588683       29.4254301695       10.5745599445
  C        45.4887751015       27.6553462573       13.1388535629
  C        45.4930817152       27.6811496963       14.5605372132
  C        44.8059391882       28.6891859562       15.3071273234
  C        14.8565112118        8.5629498251       15.2642169258
  C        14.8741561342        8.5624648584       12.4515695072
  C        42.9464347577       31.9615102868        5.8090590890
  C        43.6916418417       30.8855289837        5.0955404845
  C        44.6561644013       31.1914504941        4.1231536761
  C        45.2776275971       30.1718738572        3.4054038148
  C        44.9539282899       28.8215193963        3.6430540048
  C        44.0204327770       28.5238629387        4.6538295769
  C        43.3922029272       29.5406099220        5.3660454044
  C        45.5629899693       27.7241641629        2.8578077489
  C        45.5335046547       27.7176370607        1.4365095249
  C        44.8271667041       28.7078321601        0.6835216975
  C        35.1293441330       26.6307521352        0.7343089914
  C        35.1272454736       26.6033351497        3.5451810113
  C        18.1485518780        3.2468099274        5.7069212969
  C        17.4297632010        4.3437431427        4.9976916535
  C        16.4152338662        4.0523445712        4.0734409879
  C        15.7668303080        5.0828826046        3.3979719484
  C        16.1207085673        6.4282268014        3.6212532791
  C        17.1112829796        6.7117123352        4.5793323203
  C        17.7590439269        5.6828855521        5.2591581232
  C        15.4902804068        7.5239114912        2.8487407965
  C        15.4964973878        7.5074118604        1.4275950928
  C        16.1933734026        6.5057833748        0.6808928438
  H        10.6725849533       12.4670769161        3.9034231082
  H        11.6945627337       10.5520488440        2.6615262612
  H        15.3905277271       11.1669710427        4.7736090720
  H        14.3500216592       13.0700463334        6.0189079755
  H        13.3762617269       11.6311713790        1.2012587750
  H        50.3225727152       22.7489095032        3.9875596226
  H        49.3193242895       24.6233331044        2.6813299335
  H        45.6411391537       24.1600268022        4.8626756274
  H        46.6620626183       22.2890779611        6.1709057605
  H        47.6290932115       23.5756889989        1.2462628956
  H        14.8709491200        8.5877396714        4.6085565414
  H        50.2872035121       22.7031453261       12.0596983088
  H        49.2691344369       24.5760007217       13.3599062637
  H        45.6096910912       24.1078791489       11.1472969810
  H        46.6517317177       22.2524563107        9.8331846380
  H        47.6072251411       23.5516854151       14.7968823373
  H        40.6294800955       17.0665587299       11.4045896856
  H        48.6867164232       14.0951089391        7.7998751910
  H        10.6813586405       12.4674517624       12.0939670632
  H        11.6893147966       10.5253306258       13.2977626872
  H        15.3925442256       11.1574166012       11.2045220889
  H        14.3640857889       13.0861904349        9.9891856854
  H        13.3758674493       11.6220491501       14.7530038639
  H        47.9296312693       14.2202117148        9.7102076466
  H        47.7801607733       14.3754967724        6.4949574913
  H        49.0804148385       18.5508158037       10.8664273946
  H        10.4150227850       14.1344924241        7.9987901950
  H        24.4955621762        3.0459565883        3.9217461702
  H        25.6328472928        4.9125723868        2.7061774849
  H        23.2380119705        7.7637515936        4.8592128739
  H        22.1195357637        5.8871552458        6.0765706223
  H        23.8106200572        5.8161815867        1.2848164724
  H        36.3770462864       32.1873181658        3.9651494296
  H        35.2543911958       30.3624532540        2.6852656514
  H        37.5135367963       27.4398952641        4.8891696409
  H        38.6163858907       29.2772991951        6.1780112869
  H        37.0139451587       29.4545698782        1.2691075084
  H        25.7314217245        8.6370319588        4.6655721640
  H        36.4575448229       32.2415896071       12.1133844505
  H        35.3448106292       30.4238457999       13.4066769864
  H        37.5149651865       27.4875649366       11.1309334273
  H        38.6028155321       29.3169729137        9.8252789191
  H        37.0313349219       29.4738522120       14.8214337923
  H        46.1088996702       26.5872178379       11.3855684575
  H        44.6678099771       35.1159252443        7.8139490737
  H        24.4201620608        3.0395155971       12.1109425208
  H        25.5506063072        4.8743597435       13.3657099155
  H        23.1851512496        7.7708651397       11.2409372843
  H        22.0650153096        5.9232159853        9.9879102252
  H        23.7909619459        5.8083523895       14.8361203252
  H        44.9523150480       34.3892142400        9.6945052825
  H        44.8994597228       34.2060608799        6.4905907743
  H        40.6645760857       33.2079253607       10.8524636629
  H        23.1507960091        1.9576927121        8.0061800827
  H        25.8016181932       19.6546665149        3.9133445771
  H        23.6484379647       19.6858392178        2.6706473251
  H        22.3164877087       16.2514860567        4.8936296607
  H        24.4818762051       16.2214675588        6.1303171255
  H        23.7212657878       17.6827563993        1.2488656978
  H        35.1384730055       15.4799119899        3.9727027637
  H        37.2504361680       15.4393485978        2.6529083781
  H        38.7195770401       18.7918090823        4.9155722381
  H        36.5986094221       18.8251986106        6.2327451295
  H        37.2237503932       17.3817827250        1.2378463758
  H        20.3439890981       17.9596642145        4.6707502503
  H        35.1263605708       15.4696280286       12.1247509274
  H        37.2621964983       15.3914991538       13.4055238473
  H        38.7487215184       18.7183180951       11.1181204156
  H        36.6100790084       18.7785461404        9.8311748911
  H        37.2310992859       17.3580587335       14.7915916876
  H        35.1538665803       26.6761701917       11.3905490736
  H        28.4870981200       21.1195985906        8.0071999783
  H        25.7675129276       19.6296780411       12.1789399025
  H        23.5867612548       19.6885189474       13.3944902965
  H        22.2817937739       16.2193152318       11.2122141514
  H        24.4616066768       16.1782167303        9.9918227606
  H        23.7033173232       17.6752343415       14.8044958623
  H        29.0006432929       21.7228745833        9.7631746144
  H        29.0175257571       21.8835132424        6.6220051252
  H        32.0413602160       18.5723650124       11.0033007379
  H        27.3970051732       19.0407888183        8.0052277104
  H        14.8463540504       19.6522812706       12.1365203503
  H        17.0086660286       19.7047159767       13.3793168297
  H        18.3088387142       16.2007532482       11.2504198700
  H        16.1419566355       16.1643728151       10.0075313604
  H        16.9223469941       17.7117583235       14.8421786890
  H        46.0954952115       15.4386494034       12.0662854365
  H        43.9687508415       15.3670831730       13.3666468034
  H        42.5242982513       18.7720804609       11.1701218673
  H        44.6526139066       18.8198906618        9.8604252236
  H        44.0116179293       17.2974141612       14.8132999260
  H        20.2933440635       17.9353213697       11.4209601745
  H        46.0481614526       15.3987955030        4.0164405666
  H        43.9214036935       15.3411655802        2.7172349408
  H        42.5182693032       18.7878502157        4.8746269696
  H        44.6516745677       18.8321861770        6.1745849898
  H        44.0034016910       17.2948317642        1.2617671659
  H        46.1985992889       26.6823645127        4.6233384183
  H        52.7406813598       21.0623217355        8.1945425250
  H        14.8772135160       19.6766469938        3.9032603436
  H        17.0777023433       19.7495467128        2.7208311174
  H        18.3252749811       16.2182984606        4.8352631564
  H        16.1271526333       16.1705391088        6.0281863351
  H        16.9398679807       17.7208287238        1.2902469954
  H        52.3206210823       21.6727551309        6.2950450718
  H        52.0117433421       21.7009916959        9.4953124544
  H        49.0659618325       18.6074411827        5.2049731299
  H        13.2468713814       19.0166416464        7.9772142771
  H        29.9586513287       12.4648588798       12.2295269604
  H        28.8971114343       10.5449203749       13.4181007123
  H        25.2727818553       11.1674817584       11.1874728555
  H        26.3469867276       13.0795305532        9.9954784021
  H        27.1865272381       11.6769788315       14.7974087851
  H        31.0162695116       22.7418275655       12.0502522305
  H        32.0281587218       24.6171367227       13.3437672337
  H        35.6848030663       24.1625065237       11.1241928374
  H        34.6544713270       22.2934574519        9.8233805493
  H        33.7088683382       23.5625489331       14.7560177193
  H        25.7162713525        8.5903552464       11.4147906431
  H        30.9697379814       22.6651216933        3.8960018933
  H        31.9927769610       24.5243453923        2.5888205093
  H        35.5933057980       24.1718679948        4.9191348021
  H        34.5542244573       22.3195835149        6.2318839180
  H        33.6857438917       23.5463956840        1.2022798859
  H        40.6023811928       17.1189423965        4.6503530666
  H        32.5332931805       14.0916898596        8.3812610015
  H        29.9123098780       12.5458020030        3.8858578390
  H        28.8663530976       10.6667155356        2.6412569906
  H        25.2557925925       11.1624449957        4.9285335747
  H        26.3105599938       13.0472861640        6.1715527494
  H        27.1755186926       11.7019793709        1.2415774191
  H        33.3156426412       14.0075151278        6.4183983408
  H        33.4051255503       14.4493467719        9.6796645043
  H        32.1058242638       18.5466378314        5.1311577299
  H        30.1955777707       14.1991605399        8.0676836370
  H        16.1191998368        2.9628538896       12.1305270320
  H        14.9538414813        4.8197444532       13.3234119567
  H        17.3643001590        7.6857713564       11.2089800123
  H        18.5133986780        5.8182132003       10.0091157273
  H        16.7535594885        5.7394736401       14.7715908155
  H        44.8282383413       32.1403087229       11.9770006144
  H        45.9375021171       30.3413378776       13.3064323412
  H        43.6822848130       27.3782437186       11.1526106738
  H        42.5994975053       29.1900530778        9.8101434846
  H        44.2303321921       29.4367641748       14.7688288874
  H        14.8498706499        8.5454053176       11.3633631003
  H        44.8995792681       32.2341426591        3.9316334798
  H        46.0243700905       30.4130504740        2.6519962255
  H        43.7633522274       27.4841414688        4.8452839702
  H        42.6456134420       29.3177368941        6.1243817025
  H        44.2683686009       29.4705404702        1.2180557433
  H        35.0873775513       26.6163526942        4.6327667716
  H        36.6049726221       35.1338577106        8.1807828235
  H        16.1447658072        3.0126787258        3.9032505366
  H        14.9749844285        4.8558452394        2.6874124546
  H        17.3939166071        7.7473020870        4.7568925016
  H        18.5412215861        5.8933477102        5.9846711275
  H        16.7647561980        5.7555030068        1.2193278788
  H        36.2794321111       34.4815894809        6.2736083121
  H        36.3819353119       34.2087134849        9.5000096405
  H        40.5795252267       33.2022949237        5.1542496640
  H        17.4711039191        1.9467736541        7.9742653995
  H        29.1977672060       19.4862009910       12.5482760449
  H        28.6139842528       19.0596330425        3.8758596024
  H        30.8240394069       15.2216821616        3.8007383741
  H        31.2170126130       15.6674305677       12.6092071861
  H        28.0341340279       18.1131228094       14.3710579646
  H        29.4926569358       15.7474927237       14.7643067027
  H        32.5974840207       17.8054406082        1.5995358334
  H        18.8535478463        0.8692329394       12.3351491566
  H        40.5275835865       35.2293386923        3.9521691996
  H        42.3234691311       34.4179519491        3.5918552456
  H        22.0878796747        0.6926502028       12.3509467788
  H        11.5974313338       18.7122310060       12.3817084591
  H        52.2647835104       18.4305700563        3.6780949564
  H        49.2543907418       16.4785564928        3.5858414765
  H        10.1503622249       15.7984249812       12.2926604837
  H        50.8495264505       17.6923251330        3.9545010554
  H        10.0456086511       17.3946225528       12.0520242855
  H        20.2143950386        0.0021559750       12.0421641243
  H        39.1834344605       36.1244759937        3.6865129382
 Ni        30.4370969760       18.2554426238        2.6633767382
 Ni        30.9926918705       16.7589111117        0.2473908964
 Ni        29.4142622003       18.3657991049        0.3345353849
 Ni        30.0936834256       17.5298772443       13.3230585105
  O        10.6497518316       14.3650585362        5.4857340697
  O        12.6131308586       14.6574581957        6.5838705281
  O        49.1477109651       16.8460131800        7.9898342295
  O        50.3500958090       20.9363718604        5.6483336933
  O        48.3484657673       20.5933863450        6.6660393616
  O        11.0510242012       17.0540668553        6.5006088930
  O        50.3209797211       20.8818007909       10.4068299518
  O        48.3467062588       20.5868306927        9.3271101759
  O        49.5433969245       18.2485135692       10.0683662940
  O        12.3586460014       18.6244924120        7.9998348628
  O        48.6930236306       14.1486180769        6.7511875098
  O         8.2097150307       14.2102744469        9.3225850781
  O        10.7353556569       14.5066956008       10.6644469848
  O        12.5718319342       14.5827771210        9.3285257276
  O        22.8457485447        2.0463095615        5.4866384899
  O        21.6058687080        3.5934822197        6.5901350307
  O        42.0580154753       34.1373548693        7.9789773263
  O        37.9818872823       33.1388368732        5.5727262871
  O        39.2182809763       31.5767040133        6.6666141015
  O        20.3086295981        1.0402805643        6.5021993195
  O        38.0248723849       33.1863188217       10.4148685214
  O        39.2192919197       31.5840135945        9.3262302932
  O        40.6523273541       33.7693143743       10.0602935000
  O        18.2559120053        1.3757718682        7.9969121501
  O        44.6222041149       35.1006014951        6.7586513513
  O        24.2054067592        0.0000632719        9.3208076059
  O        22.7535990089        2.0588117129       10.5849897072
  O        21.6257531915        3.5978669846        9.3455375359
  O        27.4827735920       18.7504653954        5.4972127037
  O        26.7660073959       16.9304280203        6.6550287274
  O        30.6462186548       19.3488169286        8.0182920823
  O        33.5982187786       16.2820005926        5.6761629935
  O        34.2682754140       18.1738790928        6.7419980917
  O        29.5204193135       17.0032107346        6.3966541740
  O        33.5478429914       16.3392614526       10.4136683171
  O        34.2914478587       18.2378823384        9.4025354427
  O        31.6441288213       18.3157050915       10.1521558646
  O        30.3303017457       15.1615177809        8.0770984681
  O        28.5133774990       21.1027439515        6.9114977187
  O        28.5145993047       20.9596835703        9.4045663564
  O        27.4581262482       18.6801587028       10.6530169867
  O        26.6913619363       16.9306669948        9.4152992896
  O        13.1485912118       18.6932511832       10.5874422628
  O        13.9197018702       16.9163176635        9.4053236935
  O        50.5953598348       19.3501545149        8.0208398106
  O        47.6833581520       16.3267193745       10.4169087735
  O        46.9505775524       18.1753740087        9.3253252372
  O        11.0691379013       17.0157503499        9.4898850901
  O        47.6762134641       16.3357396223        5.6528301333
  O        46.9266993013       18.2356973914        6.6639305290
  O        49.5686474664       18.3178245579        5.9823895984
  O        10.3184034399       15.1003878785        7.9971090224
  O        52.6706874165       21.0279896631        9.2418385399
  O        12.1467931637       20.8912595224        6.6732005969
  O        13.1073471451       18.6138002144        5.3258578210
  O        13.9567865276       16.9866190498        6.6659873876
  O        29.9974752827       14.4359366829       10.6678926547
  O        28.0772794105       14.6559397853        9.4879898021
  O        32.0781953638       16.8623857377        8.0761217197
  O        30.9631081815       20.9519561254       10.4004029162
  O        32.9435553484       20.5977536710        9.3329776724
  O        29.5659515911       17.0838636382        9.5067062052
  O        30.8777333977       20.9555686105        5.6661559311
  O        32.8783535343       20.5803592374        6.6683704928
  O        31.6085124919       18.2391552241        5.9092699472
  O        28.2967440029       18.6740364641        8.0111846458
  O        32.4959236784       14.2117126504        9.4116161143
  O        32.4471027150       14.1412312498        6.8327370786
  O        29.9333303719       14.5050652224        5.4212720834
  O        28.0850658374       14.6411969017        6.7368217893
  O        17.8892103934        1.9665885660       10.6628331989
  O        18.9563044242        3.5271507694        9.4080042349
  O        39.1686781307       34.1387759130        7.9972347391
  O        43.2802536581       33.0590764727       10.3316659020
  O        42.0346909213       31.5064844707        9.2416023294
  O        20.3177839391        1.0367345404        9.4804051751
  O        43.2760532487       33.1827044405        5.5749718424
  O        42.0052985734       31.5841372008        6.5830179483
  O        40.5793100567       33.7753935551        5.9360932053
  O        22.3673791942        1.3849486901        7.9980620677
  O        36.6727035435       35.0997190581        9.2333757088
  O        16.4454599114        0.0642763353        6.6682972636
  O        17.9364584309        2.0434315358        5.3264202578
  O        18.9192272043        3.5931304835        6.6660597684
  O        29.5643646143       19.1237640271        4.0924895515
  O        29.8207759663       18.9713786873       11.9978597219
  O        31.5988781914       15.7537899822        4.0678574330
  O        31.1821409209       16.4769309490       12.0628302053
  O        31.8579491858       17.2183855901        1.8441854102
  O        30.3789453541       16.1199283501       14.5941473486
  O        28.9039384591       18.5376589322       14.4851378321
  O        39.4567660492       35.2438990438        4.0019577591
  O        19.1413953396        0.0046903616       11.9906350252
  O        41.9698825074       35.1729063391        4.0874442874
  O        21.6915577629       -0.0691453433       11.8959089436
  O        51.3648929193       18.6142878333        4.0055173586
  O        10.7512257242       18.7472917760       11.9050067057
  O        50.0797084641       16.4128868708        4.0916168940
  O         9.5243260825       16.4831147792       11.9912474161
 Zr         9.2946878272       16.0531275301        6.1822227532
 Zr        49.8344278705       16.0071472783        9.7467489590
 Zr        22.0726388937        0.0294904982        6.1894400039
 Zr        42.4604760340       35.1526896166        9.8008483999
 Zr        29.5904916760       19.2526675944        6.2432560201
 Zr        29.5741521966       19.1814945824        9.8892202918
 Zr        11.0365303949       19.0521533939        9.8275868055
 Zr        11.0421230165       19.1549109862        6.2518636778
 Zr        31.3287257814       16.1147151650        9.9530537982
 Zr        31.5359622315       15.9366806807        6.3497716857
 Zr        18.6005632477       -0.0028163177        9.7635464582
 Zr        18.5061299770       -0.0085098600        6.2138778692
 Zr        12.2998998011       16.3238487431        7.9905698292
 Zr        48.6134154720       18.8322588443        8.0105048312
 Zr        20.3153339948        2.4727869473        7.9914396796
 Zr        40.6424226097       32.6856892330        7.9784305033
 Zr        28.2920662919       16.3260540948        8.1347031698
 Zr        32.6267933001       18.8584542004        8.0514663412
  H        29.1672483704       17.8036504824        1.7366803301
  H        29.0515604062       16.7018660963        5.5950735475
  H        31.8462803793       16.3278610440        3.2711426248
