     569
 i =      151, E =     -4729.5118467166
  C        11.8582953015       14.0535219695        5.7416365571
  C        12.4557684523       12.8903531251        5.0233487741
  C        11.7043521492       12.1721358553        4.0809651613
  C        12.2806393314       11.1098727538        3.3885812367
  C        13.6208740231       10.7393040895        3.6170046848
  C        14.3536770994       11.4420565625        4.5913507376
  C        13.7808487663       12.5070407641        5.2829003140
  C        14.2604844355        9.6487092624        2.8435877712
  C        14.2560954799        9.6567364552        1.4218753000
  C        13.7430903494       10.7589075201        0.6679212709
  C        49.1263105991       21.2334473206        5.8798268370
  C        48.5494388641       22.4011159549        5.1526155261
  C        49.2996184913       23.0687663518        4.1719339652
  C        48.7326276297       24.1077910010        3.4386692061
  C        47.4018974182       24.5090280407        3.6669427534
  C        46.6707096692       23.8597144561        4.6800018631
  C        47.2332050947       22.8148679131        5.4093997372
  C        46.7717986273       25.5867885116        2.8696795673
  C        46.7611588406       25.5573777439        1.4478993588
  C        47.2610459356       24.4422708523        0.7044248467
  C        14.8600973000        8.5704031901        0.7086440937
  C        14.8910144735        8.5966026716        3.5202458541
  C        49.1128431284       21.2035140417       10.1453358034
  C        48.5274503604       22.3647008792       10.8725468042
  C        49.2668669729       23.0258695134       11.8650412229
  C        48.6904795032       24.0603681511       12.5964915154
  C        47.3598645888       24.4567107520       12.3586057422
  C        46.6392156041       23.8112934872       11.3355787784
  C        47.2127981522       22.7753832688       10.6038294884
  C        46.7215024196       25.5317362014       13.1495851408
  C        46.7334999689       25.5282527366       14.5712931691
  C        47.2488395415       24.4289976140       15.3276522693
  C        40.6185714740       17.0931855529       15.3016215602
  C        40.6238397558       17.1035405117       12.4914547645
  C        11.8826086138       14.0863937756       10.2854126656
  C        12.4717367199       12.9101697228       10.9894100024
  C        11.7144245004       12.1776992999       11.9162344902
  C        12.2808341104       11.0951578247       12.5847068863
  C        13.6193002297       10.7206094824       12.3522126396
  C        14.3569353134       11.4352597942       11.3904542341
  C        13.7916698782       12.5164992537       10.7177329453
  C        14.2529802413        9.6240010235       13.1227594930
  C        14.2521557762        9.6442442326       14.5446104978
  C        13.7424586755       10.7532901658       15.2916632013
  C        22.5109764625        3.2422718150        5.7537097365
  C        23.2265246845        4.3456394263        5.0531581423
  C        24.2210051076        4.0616062797        4.1058198580
  C        24.8498037491        5.0988499840        3.4224077291
  C        24.4989368619        6.4409055326        3.6676033380
  C        23.5323017231        6.7164954427        4.6515744130
  C        22.8988139257        5.6810436479        5.3331779044
  C        25.1054958694        7.5464873488        2.8928651921
  C        25.0714764025        7.5454265873        1.4717511275
  C        24.3674029429        6.5481527645        0.7251139045
  C        38.2980809426       31.9270016501        5.8507961467
  C        37.5578233181       30.8386922711        5.1481574147
  C        36.5950878352       31.1455975618        4.1737320817
  C        35.9658346321       30.1280279633        3.4615971019
  C        36.2829556885       28.7759984887        3.6999007317
  C        37.2149568231       28.4767840497        4.7120814816
  C        37.8484671862       29.4932759024        5.4235429813
  C        35.6735668339       27.6873426428        2.9007649136
  C        35.7128859929       27.7014460664        1.4783219444
  C        36.4236713306       28.7023043610        0.7442953923
  C        25.6906591704        8.6188332102        0.7540958301
  C        25.7090443834        8.6153947792        3.5657194719
  C        38.3289522270       31.9598953954       10.1595030651
  C        37.6101616522       30.8867798618       10.9056623236
  C        36.6797002861       31.1951841689       11.9104299361
  C        36.0693403893       30.1774885410       12.6415236792
  C        36.3734194691       28.8235061031       12.3930330982
  C        37.2832895668       28.5252955960       11.3595114216
  C        37.8958463056       29.5394487407       10.6296439388
  C        35.7607899528       27.7244355309       13.1756367798
  C        35.7571935744       27.7206707889       14.5989331920
  C        36.4433967237       28.7124331921       15.3671447063
  C        46.1356348058       26.6209756050       15.2814049644
  C        46.0873506896       26.5799503651       12.4735092972
  C        22.4603665761        3.2558541166       10.2574815567
  C        23.1535991541        4.3657175121       10.9805822301
  C        24.1570226469        4.0811901967       11.9203273463
  C        24.7835357162        5.1122790981       12.6164345221
  C        24.4266033472        6.4575370589       12.3953231692
  C        23.4463243812        6.7354599898       11.4239357565
  C        22.8152814063        5.7045669450       10.7283530098
  C        25.0548723053        7.5565729068       13.1707014182
  C        25.0457679117        7.5502795424       14.5935958513
  C        24.3535773460        6.5513394159       15.3482494999
  C        26.5536761475       17.8365236813        5.7916578401
  C        25.2503237130       17.8993914473        5.0754224920
  C        25.0066705568       18.8943380957        4.1153113005
  C        23.8011930386       18.9168795967        3.4191358815
  C        22.8063809347       17.9484976736        3.6623371062
  C        23.0443367969       16.9796115459        4.6553140252
  C        24.2516531793       16.9506134489        5.3490609351
  C        21.5434670881       17.9341112312        2.8872930767
  C        21.5546961415       17.9184450927        1.4654312737
  C        22.7650963598       17.7938536379        0.7132238262
  C        34.4506848770       17.1993387046        5.9150713434
  C        35.7373258590       17.1522321542        5.1716780882
  C        35.9384446169       16.1896956568        4.1685635069
  C        37.1173715282       16.1791807214        3.4301159456
  C        38.1307848373       17.1274128639        3.6742013698
  C        37.9327354799       18.0687020538        4.7033980972
  C        36.7498470826       18.0875453152        5.4379890609
  C        39.3816006705       17.1357130790        2.8837562547
  C        39.3709670432       17.1355691367        1.4606443954
  C        38.1622137642       17.2581517678        0.7072444819
  C        20.3127156896       17.9409208272        0.7501003635
  C        20.3161111184       17.9309637793        3.5627375011
  C        34.4379604523       17.2401397839       10.1789775545
  C        35.7346392880       17.1440593773       10.9054879166
  C        35.9292872061       16.1786788216       11.9049120936
  C        37.1198127940       16.1471415564       12.6265287295
  C        38.1443520423       17.0800026282       12.3705619420
  C        37.9539430006       18.0186970729       11.3385683937
  C        36.7633462586       18.0554817999       10.6194017394
  C        39.3947555512       17.0945744894       13.1611774266
  C        39.3778124804       17.1155298874       14.5834974097
  C        38.1652711265       17.2475726026       15.3298534960
  C        35.1212266190       26.6422441491       15.3001872438
  C        35.1770561244       26.6510015698       12.4900914620
  C        26.5699221455       17.8344611783       10.3282553517
  C        25.2588408527       17.8829874385       11.0306987347
  C        25.0040407048       18.8821265510       11.9829611419
  C        23.7864051978       18.9108639581       12.6559478448
  C        22.7956206269       17.9417850024       12.3997678932
  C        23.0458867141       16.9682207093       11.4157241882
  C        24.2639906586       16.9359338817       10.7412740646
  C        21.5300757700       17.9262487612       13.1673474887
  C        21.5472249259       17.9127860764       14.5885598270
  C        22.7610148280       17.7904757649       15.3368039001
  C        14.0462543753       17.8321842324       10.2838201589
  C        15.3545066832       17.8975510091       11.0004058055
  C        15.6151051909       18.9123901508       11.9339680739
  C        16.8264971793       18.9397669964       12.6217931680
  C        17.8090441342       17.9548638015       12.3970979223
  C        17.5544908308       16.9654806626       11.4291582407
  C        16.3426542276       16.9339654710       10.7426173411
  C        19.0752452341       17.9385492480       13.1690248539
  C        19.0657777904       17.9317305031       14.5909162667
  C        17.8534449922       17.8337165924       15.3436725364
  C        46.8007094558       17.2143857119       10.1547949161
  C        45.5051644852       17.1406247519       10.8892272152
  C        45.3002401863       16.1595025959       11.8721458478
  C        44.1150676824       16.1316606343       12.6021699877
  C        43.1026563545       17.0841917404       12.3723815629
  C        43.3030753476       18.0415571214       11.3589405306
  C        44.4894566271       18.0739365025       10.6300645280
  C        41.8511687220       17.0926336493       13.1642505999
  C        41.8626316195       17.0993738744       14.5872894361
  C        43.0738731637       17.1982361589       15.3404838268
  C        20.3083032278       17.9379493740       15.3058871963
  C        20.3021348073       17.9186500230       12.4933608639
  C        46.7854271906       17.2334757633        5.8845395315
  C        45.4865745099       17.1327385677        5.1616242018
  C        45.2708945972       16.1389753378        4.1941932656
  C        44.0853420597       16.1151339974        3.4638919935
  C        43.0840134847       17.0818746878        3.6825775952
  C        43.2914998645       18.0467165576        4.6866775697
  C        44.4779694536       18.0770160670        5.4123625917
  C        41.8364537594       17.1031347757        2.8880441253
  C        41.8552420643       17.1032519225        1.4655925606
  C        43.0704193984       17.1971585461        0.7181883243
  C        46.1533490039       26.6373730576        0.7261551726
  C        46.1616877836       26.6557964118        3.5358143248
  C        14.0386499255       17.8279897991        5.7063442834
  C        15.3521528707       17.8965282989        5.0047519433
  C        15.6211801699       18.9186834426        4.0829038482
  C        16.8447251028       18.9558657847        3.4192941611
  C        17.8228898578       17.9697615853        3.6542707266
  C        17.5593325329       16.9730643085        4.6107116739
  C        16.3379711140       16.9356621504        5.2779713800
  C        19.0895186260       17.9513585738        2.8881131929
  C        19.0733551953       17.9374889236        1.4671515692
  C        17.8572404983       17.8359143853        0.7199900421
  C        28.8107771102       14.0842621883       10.3984206230
  C        28.1948931061       12.9162536280       11.0820929497
  C        28.9068045150       12.1953734760       12.0529604003
  C        28.3049080286       11.1226958645       12.7044515537
  C        26.9773604522       10.7480985204       12.4116307177
  C        26.2888740188       11.4498000275       11.4055619957
  C        26.8878055978       12.5224840181       10.7512642729
  C        26.3045466914        9.6709996953       13.1715207465
  C        26.2873590016        9.6990172919       14.5926957406
  C        26.7817444176       10.8146842545       15.3404058880
  C        32.1764721285       21.2356387065       10.1397611390
  C        32.7719056846       22.3963711527       10.8641001233
  C        32.0258512861       23.0708886568       11.8435061985
  C        32.5962112634       24.1106333612       12.5715676322
  C        33.9289924600       24.5060166635       12.3434870255
  C        34.6574049301       23.8494409563       11.3328913441
  C        34.0899063752       22.8041365484       10.6063268126
  C        34.5561370132       25.5818066716       13.1460574458
  C        34.5375748937       25.5558611425       14.5687897374
  C        34.0286491762       24.4401118253       15.3048372311
  C        25.6811830858        8.6180726133       15.3094708866
  C        25.6711746485        8.6190085736       12.4963349163
  C        32.0793393373       21.2018715934        5.8700121808
  C        32.6448198774       22.3609920782        5.1266159892
  C        31.9195543945       22.9953865246        4.1056171228
  C        32.4936588001       24.0364385400        3.3785875075
  C        33.8063586186       24.4729011286        3.6499297359
  C        34.5111100592       23.8513282919        4.6996548496
  C        33.9435204435       22.8072720443        5.4231937454
  C        34.4499512581       25.5558112619        2.8698286300
  C        34.4822170981       25.5426741259        1.4468518200
  C        34.0012755348       24.4341516577        0.6818570305
  C        40.6145837274       17.0994476585        0.7469580539
  C        40.6082513198       17.1385262934        3.5577297369
  C        28.7554267545       14.0382062591        5.8278064680
  C        28.1494953290       12.8866700079        5.1041750803
  C        28.8720874705       12.2187200593        4.1030945912
  C        28.2877188453       11.1696567924        3.3989122191
  C        26.9653639443       10.7627194459        3.6694199658
  C        26.2629883731       11.4156473941        4.7003039439
  C        26.8445082629       12.4658208193        5.4066320832
  C        26.3171300907        9.6817366492        2.8908605292
  C        26.2959099026        9.7044849937        1.4689917669
  C        26.7843638752       10.8184329277        0.7166332145
  C        18.1352888852        3.1806345135       10.3171683086
  C        17.4057089226        4.2778679902       11.0157224791
  C        16.3904540911        3.9993241283       11.9436701566
  C        15.7425800093        5.0392039383       12.6072061413
  C        16.0938795068        6.3830026081       12.3671356931
  C        17.0827174719        6.6526661414       11.4028481181
  C        17.7319612542        5.6154417261       10.7377652152
  C        15.4695512880        7.4906977392       13.1301653098
  C        15.4851720975        7.4902455714       14.5518749410
  C        16.1868402987        6.4967342073       15.3050772744
  C        42.9457577077       31.8593638361       10.0728162363
  C        43.6460355521       30.7717712189       10.8167310891
  C        44.5918925895       31.0930525809       11.8025250465
  C        45.1975515174       30.0874915199       12.5501648544
  C        44.8707790425       28.7344555037       12.3355835594
  C        43.9445916904       28.4201506321       11.3226903886
  C        43.3358131985       29.4253066935       10.5746503077
  C        45.4884270825       27.6552209700       13.1387812769
  C        45.4928906544       27.6810716727       14.5604781165
  C        44.8059259637       28.6891926005       15.3070802848
  C        14.8562512502        8.5627947030       15.2642000968
  C        14.8739705125        8.5622794496       12.4515477325
  C        42.9463680287       31.9613129307        5.8089834786
  C        43.6914700345       30.8852896227        5.0955055829
  C        44.6563131778       31.1912054719        4.1234232062
  C        45.2777499343       30.1716213571        3.4056686935
  C        44.9536766726       28.8213065965        3.6430243956
  C        44.0198619458       28.5236446596        4.6535027769
  C        43.3916509478       29.5403963406        5.3657235815
  C        45.5627367512       27.7239724793        2.8577518806
  C        45.5333858501       27.7175359212        1.4364366991
  C        44.8271792717       28.7078244782        0.6834855831
  C        35.0956658987       26.6342142702        0.7460145497
  C        35.0588190470       26.6145682484        3.5567541677
  C        18.1484157592        3.2466857771        5.7067323878
  C        17.4295817310        4.3435486079        4.9974902586
  C        16.4146971803        4.0521873586        4.0736126107
  C        15.7662991862        5.0827515176        3.3981665147
  C        16.1204974914        6.4280501728        3.6212041909
  C        17.1114501163        6.7115155826        4.5788817845
  C        17.7591925002        5.6826666377        5.2586812203
  C        15.4901034339        7.5237797618        2.8487115669
  C        15.4962323302        7.5072654901        1.4275714041
  C        16.1930837994        6.5056131246        0.6808908957
  H        10.6724685795       12.4668606283        3.9034332356
  H        11.6944488626       10.5519151034        2.6615558986
  H        15.3903635335       11.1666460778        4.7738134600
  H        14.3498742007       13.0695328698        6.0192349251
  H        13.3759915597       11.6310142357        1.2012006638
  H        50.3224591601       22.7490058964        3.9874918147
  H        49.3191260824       24.6232936378        2.6812682956
  H        45.6409735320       24.1599499026        4.8626881861
  H        46.6619327036       22.2891916869        6.1710056554
  H        47.6292171843       23.5757325199        1.2461051052
  H        14.8709333546        8.5876244103        4.6085445476
  H        50.2870404933       22.7033017625       12.0597016343
  H        49.2688872956       24.5761056532       13.3597879880
  H        45.6095511344       24.1079481042       11.1470040834
  H        46.6516461397       22.2526797323        9.8328697999
  H        47.6073113149       23.5517485126       14.7967582238
  H        40.6254000395       17.0652110179       11.4037454274
  H        48.6867245359       14.0949930080        7.7999114375
  H        10.6812124794       12.4674134867       12.0941477036
  H        11.6891003185       10.5253343373       13.2979127635
  H        15.3920059140       11.1565171453       11.2037998916
  H        14.3636524634       13.0851507809        9.9883627534
  H        13.3755044316       11.6218291039       14.7529916315
  H        47.9298857535       14.2186225844        9.7106150230
  H        47.7798787645       14.3735313447        6.4948766217
  H        49.0805773441       18.5512414229       10.8665836384
  H        10.4150341594       14.1343649285        7.9988055912
  H        24.4783103454        3.0219772058        3.9158455065
  H        25.6213992425        4.8797018361        2.6875376992
  H        23.2547886725        7.7504990377        4.8454499213
  H        22.1299305523        5.8827302494        6.0749673143
  H        23.8082105425        5.7896011768        1.2650687934
  H        36.3645230689       32.1897701882        3.9760260297
  H        35.2204248361       30.3719950178        2.7078139466
  H        37.4687802111       27.4364857449        4.9051544459
  H        38.5933971264       29.2672040698        6.1829084342
  H        36.9851749015       29.4529438467        1.2927390489
  H        25.7520280166        8.5902589727        4.6530527065
  H        36.4543066125       32.2393012775       12.1155858192
  H        35.3418638893       30.4245941964       13.4115615994
  H        37.5323041770       27.4851614971       11.1597416090
  H        38.6194047471       29.3114442692        9.8507133920
  H        37.0210680842       29.4705022757       14.8460627373
  H        46.1083426176       26.5870611604       11.3854639379
  H        44.6680737683       35.1159423544        7.8139506237
  H        24.4365762260        3.0433430633       12.0869973419
  H        25.5651498220        4.8844161612       13.3380700306
  H        23.1588288208        7.7694428104       11.2443950276
  H        22.0424477916        5.9161397303        9.9929762140
  H        23.7833095397        5.7956956964       14.8157732097
  H        44.9531638083       34.3899321076        9.6949732753
  H        44.9013477988       34.2065686725        6.4906364326
  H        40.6650697275       33.2079603367       10.8526885857
  H        23.1505022920        1.9569115766        8.0056237434
  H        25.7723745742       19.6434684611        3.9279105507
  H        23.6148775267       19.6920294297        2.6789938999
  H        22.2851987173       16.2248442519        4.8499501447
  H        24.4505536036       16.1864804370        6.0966292710
  H        23.7028413566       17.6679675634        1.2468015032
  H        35.1538481358       15.4624950809        3.9743603568
  H        37.2700549175       15.4266472309        2.6596946788
  H        38.7056242595       18.8098056758        4.8964555837
  H        36.5819562841       18.8310766372        6.2137546390
  H        37.2253469334       17.3954864590        1.2395103280
  H        20.3157406183       17.9657755557        4.6506990472
  H        35.1296057272       15.4725626437       12.1163533559
  H        37.2681831680       15.3953984583       13.3985737963
  H        38.7368669269       18.7463968081       11.1355088073
  H        36.5974329023       18.7995357841        9.8441345076
  H        37.2305952773       17.3759052956       14.7916085587
  H        35.1579720620       26.6753475137       11.4021335214
  H        28.4619603813       21.0654403217        7.9320825299
  H        25.7718022247       19.6278515172       12.1770846805
  H        23.5871510952       19.6891285241       13.3894105887
  H        22.2885584775       16.2136728865       11.2133485327
  H        24.4726493552       16.1715175529        9.9968382274
  H        23.6957780564       17.6617378428       14.7993937373
  H        29.0215559633       21.7154772284        9.6529439876
  H        28.9992177088       21.7935788958        6.5370127511
  H        32.0533753851       18.5591625934       10.9333815993
  H        27.3744136238       18.9805480343        7.9690811366
  H        14.8572066950       19.6733631907       12.1060270409
  H        17.0258929126       19.7309846023       13.3413611101
  H        18.3041791605       16.1979780145       11.2479770137
  H        16.1319171886       16.1571528489       10.0114540752
  H        16.9140071617       17.7243559756       14.8097620588
  H        46.0877634549       15.4331394383       12.0585954697
  H        43.9591801709       15.3644114738       13.3573797130
  H        42.5299722836       18.7847872013       11.1751567550
  H        44.6595833088       18.8294286955        9.8665121982
  H        44.0138104186       17.3075967589       14.8072236473
  H        20.3016148340       17.9506613705       11.4052831794
  H        46.0475604768       15.3983660014        4.0174587966
  H        43.9211359780       15.3422984279        2.7161538981
  H        42.5249970656       18.7986940262        4.8621141945
  H        44.6574923555       18.8408400277        6.1649665117
  H        44.0078643460       17.3048860457        1.2560810268
  H        46.1980893779       26.6820588288        4.6232807094
  H        52.7407611152       21.0624628951        8.1945550562
  H        14.8621729849       19.6772828579        3.9052508864
  H        17.0565557419       19.7516294839        2.7084091481
  H        18.3080913300       16.2055508302        4.7953376768
  H        16.1161387598       16.1561630436        6.0027684982
  H        16.9206161955       17.7281130161        1.2588360163
  H        52.3212299163       21.6731966510        6.2951130857
  H        52.0125675089       21.7017519665        9.4954705705
  H        49.0666595436       18.6079371628        5.2046698098
  H        13.2465350774       19.0170383298        7.9759408281
  H        29.9269714737       12.4926626648       12.2853235638
  H        28.8580653373       10.5621820666       13.4548422900
  H        25.2634718779       11.1706073590       11.1722862030
  H        26.3512473798       13.0852321230        9.9916013217
  H        27.1344173195       11.6897785422       14.8030350713
  H        31.0027973020       22.7544056067       12.0312724870
  H        32.0112348585       24.6305820725       13.3270030858
  H        35.6892268625       24.1426389749       11.1502831319
  H        34.6604010332       22.2733084533        9.8476766145
  H        33.6843653860       23.5662976327       14.7590202717
  H        25.7053379881        8.5984204567       11.4084744409
  H        30.9126502434       22.6501483747        3.8819777747
  H        31.9237663233       24.5267503289        2.5924409824
  H        35.5271788981       24.1740385939        4.9168982657
  H        34.4971440097       22.3075445435        6.2144227802
  H        33.6364545569       23.5549394655        1.2051960222
  H        40.6060971755       17.1101317057        4.6457253150
  H        32.5265389372       14.1121440004        8.2785442103
  H        29.8894362711       12.5393265463        3.8910018599
  H        28.8547848202       10.6487422709        2.6305861800
  H        25.2404937295       11.1131508082        4.9167024749
  H        26.2954584514       12.9885710128        6.1860671689
  H        27.1376510774       11.6964827185        1.2495589474
  H        33.3479820956       14.0729721827        6.4559871216
  H        33.4065423035       14.4071081472        9.6168098015
  H        31.9828216457       18.3958697817        5.0928086355
  H        30.1912365215       14.1940885605        8.0568193269
  H        16.1188432346        2.9627487109       12.1303558712
  H        14.9534234453        4.8196397216       13.3231355667
  H        17.3644861025        7.6856360942       11.2092882965
  H        18.5134856437        5.8181252960       10.0093789416
  H        16.7532993314        5.7393121708       14.7715922260
  H        44.8284042095       32.1401011279       11.9765478387
  H        45.9375924543       30.3411477045       13.3059649996
  H        43.6814665673       27.3781344445       11.1529139674
  H        42.5988596702       29.1899263395        9.8103245700
  H        44.2304452039       29.4368737519       14.7687951783
  H        14.8497511719        8.5451796036       11.3633417023
  H        44.9000569932       32.2338666570        3.9321550300
  H        46.0247944003       30.4127753013        2.6525511095
  H        43.7624836298       27.4839537175        4.8447204631
  H        42.6448141493       29.3175317473        6.1238175173
  H        44.2685420671       29.4706359195        1.2180375383
  H        35.0083391637       26.6288480756        4.6439204537
  H        36.6050478857       35.1337911527        8.1806966330
  H        16.1439517935        3.0125583345        3.9036381983
  H        14.9741992338        4.8557695151        2.6878711070
  H        17.3944387272        7.7470574975        4.7561504788
  H        18.5416773804        5.8931235317        5.9838584348
  H        16.7644134855        5.7553149455        1.2193577516
  H        36.2788783816       34.4817801916        6.2735477018
  H        36.3808345086       34.2090333224        9.4999481015
  H        40.5783005000       33.2009185653        5.1543840903
  H        17.4708477076        1.9468792386        7.9740657632
  H        29.2554909227       19.3980421550       12.5650885662
  H        28.7574339899       18.8657908926        3.7331694859
  H        31.6752438681       15.7598466768        3.5328688226
  H        31.2551205759       15.5831955906       12.4943590067
  H        27.9463921929       17.9381969056       14.1711360009
  H        29.3413185175       15.4483569445       14.4357786077
  H        32.4668968198       17.1841505388        1.4101975389
  H        18.8525843551        0.8687609530       12.3350434121
  H        40.5280345379       35.2291008977        3.9523216678
  H        42.3222146569       34.4170897646        3.5916378140
  H        22.0878161874        0.6923515670       12.3512139293
  H        11.5969120707       18.7130181907       12.3824595928
  H        52.2647330936       18.4308873971        3.6778833839
  H        49.2548983059       16.4774989109        3.5849929505
  H        10.1509066308       15.7982045563       12.2924102346
  H        50.8496087224       17.6924557835        3.9542583815
  H        10.0460407376       17.3945716446       12.0520517082
  H        20.2136133073        0.0020207839       12.0421689365
  H        39.1833913158       36.1241595092        3.6863347002
 Ni        30.4850444164       17.5947289539        2.6662720357
 Ni        30.9850255782       16.3294943365       -0.1614691580
 Ni        29.4326287054       18.1557210517        0.1649265378
 Ni        30.0555513584       17.3556559957       13.1568876477
  O        10.6497443005       14.3651087064        5.4857460579
  O        12.6130610568       14.6574155822        6.5838458462
  O        49.1477282675       16.8460447358        7.9898602602
  O        50.3500418400       20.9363926513        5.6483842601
  O        48.3484572127       20.5933017710        6.6660395696
  O        11.0510348985       17.0540221900        6.5005065859
  O        50.3208248371       20.8817468137       10.4068653941
  O        48.3466551704       20.5867494109        9.3271137197
  O        49.5432122528       18.2485024322       10.0684906029
  O        12.3584960138       18.6245729164        7.9998438175
  O        48.6931273191       14.1486128796        6.7512254878
  O         8.2097680806       14.2103365650        9.3225541087
  O        10.7353270115       14.5067067059       10.6643944430
  O        12.5717794846       14.5827274965        9.3285729146
  O        22.8442073546        2.0417091926        5.4875152193
  O        21.6053157813        3.5919892027        6.5899390343
  O        42.0576721620       34.1368187405        7.9790964041
  O        37.9813114398       33.1362731627        5.5723290959
  O        39.2171561574       31.5750142589        6.6656180732
  O        20.3082234275        1.0392906969        6.5018937284
  O        38.0241929788       33.1846408093       10.4156777091
  O        39.2183662384       31.5830121153        9.3273123925
  O        40.6520636461       33.7689502777       10.0602475542
  O        18.2558595376        1.3761649490        7.9968248884
  O        44.6222412172       35.1004828401        6.7587452905
  O        24.2053213456        0.0000526645        9.3208822374
  O        22.7531243751        2.0582871960       10.5840581991
  O        21.6243275488        3.5961587593        9.3425144327
  O        27.4549611795       18.6964452381        5.4882553526
  O        26.6945924523       16.9133231137        6.6676428107
  O        30.6238490768       19.3425896080        8.0000510131
  O        33.5987282451       16.2715296714        5.6687015275
  O        34.2700667160       18.1683637847        6.7313861270
  O        29.4706344267       16.9382925389        6.3455057763
  O        33.5541240026       16.3380409217       10.4052772730
  O        34.2929622165       18.2389395330        9.3958095236
  O        31.6467511941       18.3128960525       10.0835884164
  O        30.3175345674       15.1572549903        8.0732885840
  O        28.4727456747       21.0286769349        6.8301792077
  O        28.5152390304       20.9519528824        9.3246199523
  O        27.4610595007       18.6806001164       10.6514281430
  O        26.6915293190       16.9268496082        9.4172183912
  O        13.1479242261       18.6936107592       10.5866953992
  O        13.9186874799       16.9159922850        9.4043946230
  O        50.5954473302       19.3502526020        8.0210771479
  O        47.6829247392       16.3269489262       10.4170370940
  O        46.9506537520       18.1754849362        9.3251405877
  O        11.0687183084       17.0160428677        9.4897994993
  O        47.6759997052       16.3358771726        5.6527131062
  O        46.9266390897       18.2357308564        6.6639101498
  O        49.5686525214       18.3178072050        5.9823465149
  O        10.3183285426       15.1002757938        7.9971254358
  O        52.6706884610       21.0280106599        9.2418543794
  O        12.1467858737       20.8913507795        6.6732660465
  O        13.1047448666       18.6143612653        5.3262274981
  O        13.9553330938       16.9864122413        6.6655565304
  O        29.9910148106       14.4398695127       10.7224039331
  O        28.0850823391       14.6520206222        9.4978057900
  O        32.0743611319       16.8565077903        8.0213909502
  O        30.9577992824       20.9477747365       10.3978457556
  O        32.9410217217       20.5973497378        9.3298476982
  O        29.5620317709       17.0763384788        9.4962802694
  O        30.8457433459       20.8898013054        5.6552061713
  O        32.8649099377       20.5864222876        6.6624972264
  O        31.6090541361       18.2493340286        5.9819484199
  O        28.2724448416       18.6119851157        7.9997134329
  O        32.4935752449       14.2113822809        9.3338865894
  O        32.4474530494       14.1463167863        6.8134942749
  O        29.9220072364       14.4233872106        5.4915174229
  O        28.0398193325       14.5841476184        6.7499285579
  O        17.8891450390        1.9664407189       10.6628242609
  O        18.9561692727        3.5270911560        9.4080574159
  O        39.1686075483       34.1386021126        7.9970971778
  O        43.2801678356       33.0589240910       10.3316508168
  O        42.0343725267       31.5064701797        9.2415656399
  O        20.3173111544        1.0362519160        9.4805283865
  O        43.2760588697       33.1824729293        5.5749457583
  O        42.0051896162       31.5841149123        6.5830398993
  O        40.5789438918       33.7747824175        5.9356685798
  O        22.3670023846        1.3842804070        7.9981026753
  O        36.6727713266       35.0996426443        9.2333361683
  O        16.4455557333        0.0640541843        6.6682667678
  O        17.9363732677        2.0432263733        5.3263875547
  O        18.9190366355        3.5931222355        6.6658965510
  O        29.6494427831       18.6852450549        4.0821986077
  O        29.8660399709       18.9024044533       11.9837111594
  O        31.2984306699       16.4067473375        4.1598584216
  O        31.2973231777       16.4198148481       11.9866539567
  O        31.7244040516       16.5591825087        1.5121616720
  O        30.2424824665       15.7600350581       14.2278564582
  O        28.8331685077       18.3082315694       14.3302191586
  O        39.4567616504       35.2436689361        4.0019933928
  O        19.1406461380        0.0042299412       11.9906356221
  O        41.9696058681       35.1725572101        4.0871586346
  O        21.6913271960       -0.0690991627       11.8957537409
  O        51.3648651513       18.6143337112        4.0054370317
  O        10.7510965787       18.7472762544       11.9050288911
  O        50.0797486559       16.4128432231        4.0916219712
  O         9.5248513099       16.4829981963       11.9912573327
 Zr         9.2950718554       16.0529854946        6.1821802335
 Zr        49.8346163333       16.0070746567        9.7468567047
 Zr        22.0727691131        0.0283343958        6.1894238889
 Zr        42.4604879283       35.1523768499        9.8007970666
 Zr        29.5833329128       19.1642966165        6.2174451000
 Zr        29.5706164407       19.1667064253        9.8584039947
 Zr        11.0362329512       19.0525660980        9.8276956783
 Zr        11.0418875853       19.1552827700        6.2518627743
 Zr        31.3458419189       16.0977002512        9.8720675517
 Zr        31.4896683157       15.9391735487        6.2411665855
 Zr        18.6004894497       -0.0029421552        9.7635078755
 Zr        18.5061604390       -0.0088760325        6.2133795337
 Zr        12.2991781310       16.3233756696        7.9906403277
 Zr        48.6140129036       18.8326367498        8.0105884552
 Zr        20.3142965242        2.4719423069        7.9907572520
 Zr        40.6421389557       32.6854009983        7.9781525098
 Zr        28.2866334941       16.2935572533        8.1186764880
 Zr        32.6183596416       18.8351264918        8.0253338731
  H        30.0030567691       18.6237434919        1.5510927653
  H        29.0790218559       16.6814634922        5.4870233710
  H        30.8638254802       17.8747821722       15.5616423579
