     576
 i =      211, E =     -4780.0901510121
  C        11.8587749611       14.0535238573        5.7415673228
  C        12.4563248603       12.8906348180        5.0232273850
  C        11.7045324915       12.1713587528        4.0819089099
  C        12.2809610835       11.1091654032        3.3895819259
  C        13.6216856636       10.7397170395        3.6170128111
  C        14.3549974749       11.4436928521        4.5900699830
  C        13.7820546154       12.5086629696        5.2815514114
  C        14.2612221617        9.6490183417        2.8436332920
  C        14.2563529001        9.6568229409        1.4219329542
  C        13.7430700395       10.7589055712        0.6680474165
  C        49.1269289864       21.2331200551        5.8796873237
  C        48.5501954694       22.4011443271        5.1526156186
  C        49.3002273326       23.0684365052        4.1716111884
  C        48.7333134562       24.1076087023        3.4384192447
  C        47.4028093420       24.5093178141        3.6670996742
  C        46.6718656873       23.8604761914        4.6806359760
  C        47.2342974113       22.8155507209        5.4099740012
  C        46.7725351346       25.5870199399        2.8698470178
  C        46.7614134806       25.5573783176        1.4480855530
  C        47.2613332835       24.4422801564        0.7045890364
  C        14.8602732852        8.5704756664        0.7086634340
  C        14.8921911919        8.5971762826        3.5202709318
  C        49.1132419907       21.2033932579       10.1453436423
  C        48.5278510625       22.3647917428       10.8725518111
  C        49.2670818120       23.0254538024       11.8654954268
  C        48.6907759336       24.0600135603       12.5969912220
  C        47.3604017979       24.4568714816       12.3587154246
  C        46.6399932369       23.8120280885       11.3351533625
  C        47.2135250946       22.7761256566       10.6033433296
  C        46.7219616503       25.5318612569       13.1497370837
  C        46.7335924518       25.5281846364       14.5714446791
  C        47.2490388988       24.4289745671       15.3278274491
  C        40.6203982794       17.1353823060       15.3102645152
  C        40.6307891943       17.1412464116       12.5000400254
  C        11.8830199518       14.0865783031       10.2855234117
  C        12.4723607162       12.9108343721       10.9898252048
  C        11.7147057245       12.1773703114       11.9156145455
  C        12.2812901080       11.0949153516       12.5840393382
  C        13.6202298590       10.7214248056       12.3524885960
  C        14.3583823603       11.4373055668       11.3920567798
  C        13.7929496445       12.5184764283       10.7193587111
  C        14.2537720833        9.6245886487       13.1228664160
  C        14.2524232072        9.6444675660       14.5447114437
  C        13.7424814601       10.7533788795       15.2917942803
  C        22.5108983584        3.2452903762        5.7494696586
  C        23.2222492307        4.3494188037        5.0429323144
  C        24.2174359104        4.0667534344        4.0953065364
  C        24.8452677821        5.1037926901        3.4096704990
  C        24.4946001875        6.4472864548        3.6504411071
  C        23.5253737006        6.7213692017        4.6330692972
  C        22.8930100911        5.6861264287        5.3173956944
  C        25.1083684326        7.5524417849        2.8772426345
  C        25.0939407612        7.5459753658        1.4550165505
  C        24.3964895825        6.5491308991        0.7013632210
  C        38.3034571528       31.9291847740        5.8486218918
  C        37.5761307507       30.8381770621        5.1381889500
  C        36.6183910738       31.1394464275        4.1579140096
  C        36.0041186859       30.1173034567        3.4394569437
  C        36.3325312443       28.7687746033        3.6801717603
  C        37.2606446533       28.4749678680        4.6968097934
  C        37.8792515147       29.4958174942        5.4137319484
  C        35.7329013428       27.6752390130        2.8829758202
  C        35.7667306839       27.6889179401        1.4616367906
  C        36.4731966725       28.6910514342        0.7245123028
  C        25.7263679084        8.6145723085        0.7409266735
  C        25.7043090082        8.6251724621        3.5533067211
  C        38.3290264694       31.9621460845       10.1559364903
  C        37.6084227818       30.8876853935       10.8972741381
  C        36.6813068347       31.1941938066       11.9049642284
  C        36.0735862234       30.1739612500       12.6341722361
  C        36.3788289838       28.8220985582       12.3787862630
  C        37.2831043878       28.5255538160       11.3407120439
  C        37.8930338107       29.5422374118       10.6129859673
  C        35.7738994594       27.7211683374       13.1626930855
  C        35.7875841932       27.7125590115       14.5846083245
  C        36.4827033681       28.7026560394       15.3477481573
  C        46.1355876196       26.6208247085       15.2815849115
  C        46.0880599683       26.5802587284       12.4736875705
  C        22.4693007054        3.2585354516       10.2569967658
  C        23.1801381955        4.3660490949       10.9706585361
  C        24.1874315731        4.0762484992       11.9055386153
  C        24.8300811856        5.1033178004       12.5941187488
  C        24.4878355659        6.4528425774       12.3728214389
  C        23.5050898417        6.7358201662       11.4048557294
  C        22.8579381112        5.7089166194       10.7162184186
  C        25.1257195165        7.5478622144       13.1507074602
  C        25.1037042338        7.5429288715       14.5742588524
  C        24.3988512363        6.5489849074       15.3243706159
  C        26.6231531402       17.8637715744        5.7827774601
  C        25.3165910752       17.9067458673        5.0571626862
  C        25.0594879601       18.8987869770        4.0975556657
  C        23.8465112970       18.9183312517        3.4114611817
  C        22.8534700304       17.9495817509        3.6629878617
  C        23.1073952797       16.9799631636        4.6515444902
  C        24.3224603988       16.9544236436        5.3347427879
  C        21.5797242183       17.9348636170        2.8992019116
  C        21.5795651878       17.9115976923        1.4765671285
  C        22.7847955952       17.7845980452        0.7160406113
  C        34.4353223707       17.1963601819        5.9172222867
  C        35.7257286964       17.1531031790        5.1688437103
  C        35.9255429639       16.1994990342        4.1584120940
  C        37.1065806681       16.1920175272        3.4214362229
  C        38.1210897578       17.1359419179        3.6751711466
  C        37.9234120206       18.0698716238        4.7102229699
  C        36.7392416749       18.0837604440        5.4436834724
  C        39.3753455126       17.1484047499        2.8882634617
  C        39.3685372588       17.1665868637        1.4663906830
  C        38.1609743639       17.2971330309        0.7108052336
  C        20.3327562016       17.9308939545        0.7682236156
  C        20.3548770809       17.9389272435        3.5816783561
  C        34.4221767590       17.2164487165       10.2239266956
  C        35.7292831535       17.1372448454       10.9346445534
  C        35.9461623654       16.1720850387       11.9295207614
  C        37.1420026480       16.1566334631       12.6420362726
  C        38.1491399760       17.1064090701       12.3808928407
  C        37.9386366528       18.0437478348       11.3521025075
  C        36.7421325327       18.0636101099       10.6411811482
  C        39.4012068393       17.1344111069       13.1686817350
  C        39.3815466432       17.1594809196       14.5899398506
  C        38.1666107833       17.2917165435       15.3340311789
  C        35.1585743660       26.6325538515       15.2884310832
  C        35.1823002116       26.6514465624       12.4793868494
  C        26.5709125848       17.8276524331       10.3244852166
  C        25.2564879736       17.8742218944       11.0298170873
  C        24.9959764399       18.8745076825       11.9786949049
  C        23.7784616916       18.8999425182       12.6529040006
  C        22.7921791291       17.9249344201       12.4023466149
  C        23.0469919026       16.9501018788       11.4206827538
  C        24.2651495279       16.9225520338       10.7445396537
  C        21.5291144354       17.9057062781       13.1761615501
  C        21.5535532330       17.8953609330       14.5978440131
  C        22.7719016061       17.7768727300       15.3395352339
  C        14.0469946578       17.8289568357       10.2890975476
  C        15.3512623068       17.8863527359       11.0144822529
  C        15.6070683058       18.8886509278       11.9633984163
  C        16.8158936901       18.9096801892       12.6565981847
  C        17.8035467666       17.9312457822       12.4233882866
  C        17.5524685186       16.9533371358       11.4422536943
  C        16.3431175668       16.9276592450       10.7505954841
  C        19.0727371128       17.9142841904       13.1924336312
  C        19.0719576670       17.9113403660       14.6150312808
  C        17.8652152853       17.8131711766       15.3767562607
  C        46.8026326227       17.2179207664       10.1573754397
  C        45.5091310142       17.1541339574       10.8985840955
  C        45.2986834295       16.1743180345       11.8812193212
  C        44.1144537074       16.1556354790       12.6137595332
  C        43.1100482873       17.1167380778       12.3861046188
  C        43.3169890799       18.0750489669       11.3754920196
  C        44.5019878936       18.0977025168       10.6439820913
  C        41.8567663238       17.1312454559       13.1759163810
  C        41.8654587166       17.1396177512       14.5981645854
  C        43.0761694806       17.2335739942       15.3543440251
  C        20.3190075883       17.9216251130       15.3230525810
  C        20.2967905494       17.8949543056       12.5099521154
  C        46.7853012835       17.2330270457        5.8862760899
  C        45.4832736838       17.1321786369        5.1663017123
  C        45.2639112845       16.1383069472        4.2003434123
  C        44.0763188657       16.1161233164        3.4726287688
  C        43.0779218149       17.0849565357        3.6931806816
  C        43.2882655751       18.0492231665        4.6966928971
  C        44.4767377248       18.0777162452        5.4195447391
  C        41.8303255545       17.1118373265        2.8974356906
  C        41.8522653090       17.1285931913        1.4761383606
  C        43.0699238919       17.2257048010        0.7314472162
  C        46.1533697245       26.6372515002        0.7263466195
  C        46.1626532632       26.6561737524        3.5359853844
  C        14.0463073963       17.8320513605        5.7087949752
  C        15.3677942171       17.9070041369        5.0190800430
  C        15.6414063896       18.9219401735        4.0898984931
  C        16.8707657806       18.9594854399        3.4355983629
  C        17.8547465731       17.9812748707        3.6842422475
  C        17.5880936077       16.9956766820        4.6520779970
  C        16.3607743560       16.9575750541        5.3099377984
  C        19.1221706663       17.9560358019        2.9150375378
  C        19.0977908911       17.9314108246        1.4934500745
  C        17.8778283300       17.8220871129        0.7529949700
  C        28.8176454641       14.1429180443       10.4088454238
  C        28.2396435712       12.9557710916       11.1020471000
  C        28.9656931189       12.2271553424       12.0561216055
  C        28.3806429674       11.1356330457       12.6963284419
  C        27.0552007101       10.7476206610       12.4094386624
  C        26.3534696356       11.4572805711       11.4180014827
  C        26.9351702723       12.5463040655       10.7759349389
  C        26.3877658865        9.6584960419       13.1620528777
  C        26.3566529427        9.6859193798       14.5832342134
  C        26.8469547918       10.8010195599       15.3345218500
  C        32.1803201408       21.2358465194       10.1454032485
  C        32.7764018456       22.4018904062       10.8621556741
  C        32.0321489268       23.0763773930       11.8424443867
  C        32.6053834198       24.1147923280       12.5700233736
  C        33.9382230088       24.5064403156       12.3385499593
  C        34.6643829921       23.8509765909       11.3263255855
  C        34.0937508205       22.8072632147       10.6003672721
  C        34.5698751947       25.5802085213       13.1388179450
  C        34.5657058831       25.5494961335       14.5604217960
  C        34.0586789748       24.4334873510       15.2983291028
  C        25.7367720344        8.6089136329       15.2955199942
  C        25.7551857112        8.6075815673       12.4820535027
  C        32.1043096251       21.2216480282        5.8774180907
  C        32.6967074168       22.3698970251        5.1300539935
  C        31.9647840491       23.0314896186        4.1317780968
  C        32.5482100659       24.0605804467        3.3960381630
  C        33.8770602552       24.4591711120        3.6412767978
  C        34.5917054601       23.8108600103        4.6667478558
  C        34.0134851510       22.7758537951        5.3969044644
  C        34.5197955318       25.5403024496        2.8588927032
  C        34.5392225776       25.5295840982        1.4372055407
  C        34.0450596508       24.4245710008        0.6750583108
  C        40.6133574727       17.1344281470        0.7551043541
  C        40.6005434057       17.1379778861        3.5651343462
  C        28.7479580408       14.0668322851        5.8191175531
  C        28.1397060983       12.9185683614        5.0816196035
  C        28.8763781889       12.2229483206        4.1106686199
  C        28.2972385179       11.1652662594        3.4131447802
  C        26.9646203096       10.7767753367        3.6592428309
  C        26.2451561063       11.4601586658        4.6575861625
  C        26.8229397903       12.5178559617        5.3576838099
  C        26.3240860905        9.6875591334        2.8821691424
  C        26.3241819190        9.7015314206        1.4600083186
  C        26.8295284215       10.8097895292        0.7103348234
  C        18.1355707559        3.1811404905       10.3171544021
  C        17.4061996205        4.2783346828       11.0155906179
  C        16.3903949412        3.9999185631       11.9430280068
  C        15.7426348729        5.0398461016       12.6065467238
  C        16.0945549966        6.3836042882       12.3669884401
  C        17.0839852407        6.6531799540       11.4032712531
  C        17.7331541415        5.6158904401       10.7381989996
  C        15.4701860859        7.4912401804       13.1301018258
  C        15.4853784428        7.4904467005       14.5518249588
  C        16.1869151736        6.4968127269       15.3049893107
  C        42.9459624302       31.8596380930       10.0729457135
  C        43.6463879174       30.7719788938       10.8168774004
  C        44.5917755935       31.0933069196       11.8030848217
  C        45.1974955571       30.0877648144       12.5507503404
  C        44.8712396910       28.7346754163       12.3357715833
  C        43.9455899223       28.4203337035       11.3223894545
  C        43.3367653176       29.4254677833       10.5743466147
  C        45.4887994238       27.6553608014       13.1389637393
  C        45.4928913838       27.6809567089       14.5606608264
  C        44.8058117115       28.6889963584       15.3073022632
  C        14.8564204200        8.5629249587       15.2642265620
  C        14.8750113531        8.5630959029       12.4515353654
  C        42.9465401826       31.9617074967        5.8089942883
  C        43.6918468697       30.8855853216        5.0955753329
  C        44.6563231384       31.1914860820        4.1231541527
  C        45.2778698458       30.1718960210        3.4054479099
  C        44.9542697641       28.8215547730        3.6432153954
  C        44.0209623351       28.5239040967        4.6541709508
  C        43.3926778192       29.5406675740        5.3663342736
  C        45.5632619417       27.7241389455        2.8579513604
  C        45.5334401091       27.7174195164        1.4366553312
  C        44.8270970579       28.7076312056        0.6836959804
  C        35.1466652898       26.6214467334        0.7333466863
  C        35.1277285303       26.5997753404        3.5431582288
  C        18.1489308397        3.2471114145        5.7067682289
  C        17.4304332886        4.3439698391        4.9974840767
  C        16.4151447593        4.0527097793        4.0739736283
  C        15.7668501924        5.0833213110        3.3985639359
  C        16.1215846385        6.4285697069        3.6211340762
  C        17.1130835229        6.7119516776        4.5782779255
  C        17.7607586924        5.6830565138        5.2580949510
  C        15.4909543111        7.5242003786        2.8486835674
  C        15.4965927367        7.5074278205        1.4275450386
  C        16.1932437311        6.5056825876        0.6808048016
  H        10.6722822506       12.4651979856        3.9051328676
  H        11.6946010549       10.5504115090        2.6633126813
  H        15.3921969465       11.1695081084        4.7714536192
  H        14.3516863698       13.0722480770        6.0165768515
  H        13.3760723525       11.6310246102        1.2013745838
  H        50.3229230723       22.7483530223        3.9868413759
  H        49.3198291374       24.6228553437        2.6808493142
  H        45.6424097583       24.1613285683        4.8638680396
  H        46.6633334885       22.2903274656        6.1721168247
  H        47.6299501235       23.5759359136        1.2462737105
  H        14.8727655075        8.5885793596        4.6085797291
  H        50.2871195872       22.7025537512       12.0604043330
  H        49.2692145359       24.5754308301       13.3604891198
  H        45.6106283386       24.1093731994       11.1460455366
  H        46.6527350882       22.2540208769        9.8317170373
  H        47.6078781192       23.5518832523       14.7969216329
  H        40.6341608259       17.0992156275       11.4124829230
  H        48.6870266239       14.0951268424        7.7999352731
  H        10.6811359818       12.4662295986       12.0927729523
  H        11.6894101869       10.5242920300       13.2964836120
  H        15.3939618927       11.1597383534       11.2064564235
  H        14.3654770624       13.0881383510        9.9912073642
  H        13.3756630960       11.6219955477       14.7531504359
  H        47.9301421978       14.2186743075        9.7110061595
  H        47.7799850493       14.3737047129        6.4951842669
  H        49.0833806961       18.5521276738       10.8672530561
  H        10.4161035356       14.1343638750        7.9988402831
  H        24.4780718675        3.0276021594        3.9071165557
  H        25.6183148369        4.8826198549        2.6769226079
  H        23.2455738182        7.7549939535        4.8259655009
  H        22.1239377613        5.8902762285        6.0584165034
  H        23.8277829341        5.7937766995        1.2359518462
  H        36.3803370514       32.1821126147        3.9610516348
  H        35.2611163768       30.3544393622        2.6811691908
  H        37.5219864284       27.4365123519        4.8895780781
  H        38.6216959149       29.2770098611        6.1775155760
  H        37.0385507748       29.4405086080        1.2707285169
  H        25.7315134301        8.6065276369        4.6413358682
  H        36.4580519192       32.2379324207       12.1142835538
  H        35.3493048333       30.4169407410       13.4085153876
  H        37.5303947912       27.4858357992       11.1368340641
  H        38.6141173246       29.3185992203        9.8305913658
  H        37.0563781361       29.4606734627       14.8222309116
  H        46.1095994244       26.5877145039       11.3856537520
  H        44.6682795327       35.1161484525        7.8139643380
  H        24.4574755832        3.0364451323       12.0758553525
  H        25.6123653214        4.8676931329       13.3126068629
  H        23.2269251621        7.7718240001       11.2220248460
  H        22.0836652643        5.9287128512        9.9846367925
  H        23.8315693314        5.7940759638       14.7877543552
  H        44.9537615321       34.3904681252        9.6952726670
  H        44.9014954429       34.2068818455        6.4905026608
  H        40.6662077679       33.2095072753       10.8533269531
  H        23.1510907359        1.9581784230        8.0041377883
  H        25.8218162106       19.6506819191        3.9060537573
  H        23.6529838005       19.6938407293        2.6734016073
  H        22.3532094588       16.2223505244        4.8546644168
  H        24.5285913484       16.1915834646        6.0819079311
  H        23.7260295398       17.6619088791        1.2441716045
  H        35.1389107303       15.4758619762        3.9586298280
  H        37.2594179056       15.4445473754        2.6460446526
  H        38.6978656630       18.8073532011        4.9109397480
  H        36.5708480016       18.8197321171        6.2264813560
  H        37.2236463074       17.4302831454        1.2432272389
  H        20.3619238776       17.9803281645        4.6694977403
  H        35.1609343065       15.4501910539       12.1414893247
  H        37.3085612364       15.4053970585       13.4108612703
  H        38.7096741682       18.7828742758       11.1446793766
  H        36.5588340202       18.8052983640        9.8673798152
  H        37.2331485263       17.4204876033       14.7935701861
  H        35.1512227868       26.6796349972       11.3918410576
  H        28.4984988509       21.0797711521        7.8938082876
  H        25.7604581034       19.6238118062       12.1709577567
  H        23.5766954595       19.6796469189       13.3841816749
  H        22.2938250938       16.1906025167       11.2210628959
  H        24.4774789316       16.1579204624       10.0011524785
  H        23.7031791052       17.6485351692       14.7959236928
  H        29.0075655604       21.7228413242        9.7406691699
  H        29.1897901696       21.7250163072        6.5767348531
  H        32.0790468897       18.5838757387       10.9911629590
  H        27.4036096501       19.0711627563        8.0810904223
  H        14.8481256233       19.6470169945       12.1423539250
  H        17.0102558464       19.6933553476       13.3857212274
  H        18.3043957001       16.1900063841       11.2527906410
  H        16.1382206206       16.1592058649       10.0089977564
  H        16.9224359903       17.6978280925       14.8499237933
  H        46.0805215923       15.4410779801       12.0649176682
  H        43.9532394351       15.3886539593       13.3681408230
  H        42.5500195953       18.8253079144       11.1945758951
  H        44.6776764125       18.8527339712        9.8812587384
  H        44.0172013636       17.3423612562       14.8227447137
  H        20.2904472366       17.9256286665       11.4218398164
  H        46.0394419133       15.3969210867        4.0216907228
  H        43.9095191231       15.3439412870        2.7247480637
  H        42.5231253768       18.8021777507        4.8738821156
  H        44.6594707928       18.8412546460        6.1716687876
  H        44.0063452117       17.3274024139        1.2723720867
  H        46.1996631247       26.6827827289        4.6234235291
  H        52.7412829919       21.0626805078        8.1947015912
  H        14.8807368838       19.6752275100        3.8969496532
  H        17.0815869227       19.7495780863        2.7180809674
  H        18.3389244265       16.2340575986        4.8523323589
  H        16.1400922673       16.1834269396        6.0408130356
  H        16.9444838633       17.7136096382        1.2972096976
  H        52.3228575467       21.6733635377        6.2940853172
  H        52.0135168897       21.7022876744        9.4956869906
  H        49.0679875648       18.6077694043        5.2038121400
  H        13.2477293693       19.0160591429        7.9773866329
  H        29.9867626873       12.5258264057       12.2833220047
  H        28.9474337668       10.5712810908       13.4337234056
  H        25.3296114600       11.1708799844       11.1865784404
  H        26.3873260849       13.1122360283       10.0268462938
  H        27.2113393099       11.6720534063       14.7985222068
  H        31.0087320685       22.7606821525       12.0301833208
  H        32.0231349066       24.6368289959       13.3262014785
  H        35.6957930069       24.1443943682       11.1417782497
  H        34.6602417805       22.2758853575        9.8391103662
  H        33.7026322684       23.5651778306       14.7513827505
  H        25.7954180463        8.5887245590       11.3942741244
  H        30.9400007503       22.7221015296        3.9396312042
  H        31.9735482584       24.5746440346        2.6285790609
  H        35.6203060054       24.1073363048        4.8616543069
  H        34.5705666861       22.2533940475        6.1710895927
  H        33.6784369217       23.5492365166        1.2034521035
  H        40.5958960569       17.0956123910        4.6526612306
  H        32.5047256165       14.1569559336        8.2598693920
  H        29.9036326536       12.5251735200        3.9199042466
  H        28.8772080540       10.6226714723        2.6697190493
  H        25.2139235361       11.1746207213        4.8550429275
  H        26.2628540422       13.0610252169        6.1151612285
  H        27.1799555004       11.6869422763        1.2464769681
  H        33.3074766464       14.2303796596        6.4648288655
  H        33.4046875180       14.3856438826        9.6115171862
  H        32.0966272265       18.4924322405        5.1565143679
  H        30.2110922351       14.1934168636        8.0840019968
  H        16.1182894939        2.9634170539       12.1293496533
  H        14.9531331576        4.8204277680       13.3221375823
  H        17.3664655849        7.6860641868       11.2102559908
  H        18.5153168517        5.8186598127       10.0105158635
  H        16.7534620855        5.7394696582       14.7714837377
  H        44.8279714825       32.1403947038       11.9773583966
  H        45.9372927257       30.3415465165       13.3067527928
  H        43.6831026660       27.3782378591       11.1521115248
  H        42.6003325632       29.1901098221        9.8095120100
  H        44.2305134752       29.4368116518       14.7690061189
  H        14.8513919915        8.5464707984       11.3633060304
  H        44.8997920396       32.2341670148        3.9316069669
  H        46.0247018416       30.4131469676        2.6521446095
  H        43.7642397107       27.4841516129        4.8459304586
  H        42.6463740871       29.3178630945        6.1249695785
  H        44.2686514934       29.4705619697        1.2182787136
  H        35.0825975554       26.6134482050        4.6305220922
  H        36.6052022857       35.1341238984        8.1806288517
  H        16.1439406295        3.0131517785        3.9043683184
  H        14.9744373766        4.8564657868        2.6885878234
  H        17.3967100288        7.7474068188        4.7550525684
  H        18.5437236066        5.8935935594        5.9827436532
  H        16.7647532533        5.7554723147        1.2191956311
  H        36.2788736042       34.4825326663        6.2730025154
  H        36.3808913439       34.2092593478        9.4996819213
  H        40.5808317860       33.2033550708        5.1534369048
  H        17.4715734655        1.9478598452        7.9743313380
  H        29.0759417098       19.4086616894       12.5463684978
  H        29.7095864116       19.6493159600        3.5787724980
  H        31.7280728933       15.7972641908        3.5267760119
  H        31.0372591774       15.6565151034       12.5973796341
  H        28.1087511391       17.8872748996       14.8193387476
  H        29.3945582847       15.6832914632       14.9056330080
  H        31.4336135186       19.8563152025        1.5140529515
  H        32.9517423871       17.5903383251        1.4676015156
  H        28.3594922320       17.7895038499        2.1225052199
  H        32.2266227529       18.2775328303       14.7021921116
  H        18.8530238404        0.8689229446       12.3351890543
  H        40.5279081288       35.2287916924        3.9518665094
  H        42.3246488057       34.4190609678        3.5902965925
  H        22.0876672876        0.6920804956       12.3518997575
  H        11.5969521156       18.7127177879       12.3824329906
  H        52.2653076706       18.4312867731        3.6775685103
  H        49.2554461048       16.4767029550        3.5843168231
  H        10.1501446159       15.7982258519       12.2927176807
  H        50.8504561384       17.6924986402        3.9541674673
  H        10.0460922363       17.3946220629       12.0519117732
  H        20.2141341407        0.0021947587       12.0421179430
  H        39.1836728699       36.1245253570        3.6865173930
 Ni        31.0323480276       17.9094665455        2.9159104075
 Ni        31.2424541160       16.5645745128        0.1655613551
 Ni        29.7622842638       18.8465263112        0.1657625128
 Ni        30.0119637835       17.5183618065       13.4050565086
  O        10.6499301928       14.3650983689        5.4858413359
  O        12.6131746533       14.6575281925        6.5838949908
  O        49.1477997663       16.8458582190        7.9897272043
  O        50.3502955016       20.9357600997        5.6480226373
  O        48.3485694934       20.5932964568        6.6659246719
  O        11.0517029192       17.0537655746        6.5007296142
  O        50.3209956240       20.8816679661       10.4068616366
  O        48.3467099165       20.5867559427        9.3271288227
  O        49.5436777755       18.2483456416       10.0682356199
  O        12.3591213490       18.6245816734        7.9997230842
  O        48.6931907243       14.1486624270        6.7512539993
  O         8.2098309595       14.2105275307        9.3226311964
  O        10.7353346583       14.5067404743       10.6643229050
  O        12.5718176157       14.5828207626        9.3284988494
  O        22.8446764870        2.0435664575        5.4867482845
  O        21.6066677611        3.5930903169        6.5887812484
  O        42.0583374636       34.1377846226        7.9791888217
  O        37.9817857277       33.1371583932        5.5722634627
  O        39.2184139438       31.5761523973        6.6668671800
  O        20.3086659521        1.0403820772        6.5025552482
  O        38.0245701259       33.1855746656       10.4152594130
  O        39.2193893446       31.5839414094        9.3261740292
  O        40.6523254565       33.7696025190       10.0602912138
  O        18.2560013141        1.3763154625        7.9968564406
  O        44.6221232329       35.1006322668        6.7587942243
  O        24.2053651276        0.0000670141        9.3208023078
  O        22.7539214398        2.0589150477       10.5851050198
  O        21.6268936014        3.5987638048        9.3472948612
  O        27.4981178620       18.7536494223        5.4979879921
  O        26.7651846092       16.9349105213        6.6544548969
  O        30.6599240687       19.4040499921        8.0675704999
  O        33.5832453968       16.2751078245        5.6671601807
  O        34.2718525875       18.1661609046        6.7380970105
  O        29.5720267280       17.0627923890        6.5770161968
  O        33.5358522058       16.3314144755       10.4994919812
  O        34.2665747269       18.1789731603        9.4049332370
  O        31.6469262554       18.3183106826       10.1628281532
  O        30.3189764903       15.1586872912        8.0918498694
  O        28.5528830974       21.0345492880        6.8392054294
  O        28.5145634812       20.9539407236        9.4071432849
  O        27.4574454146       18.6801413500       10.6580551864
  O        26.6949419529       16.9287598986        9.4131820132
  O        13.1487186339       18.6929341485       10.5874182392
  O        13.9195540883       16.9163564833        9.4051836781
  O        50.5961849533       19.3501562638        8.0204294558
  O        47.6814665641       16.3273957253       10.4176005193
  O        46.9511329533       18.1760294900        9.3247324806
  O        11.0697675240       17.0154798062        9.4896019791
  O        47.6750310859       16.3359751637        5.6523740740
  O        46.9265544735       18.2359114673        6.6640831188
  O        49.5686774691       18.3176540015        5.9822819394
  O        10.3186619653       15.1002121968        7.9971245430
  O        52.6707765038       21.0278773102        9.2418168982
  O        12.1468431739       20.8911726787        6.6732712569
  O        13.1084090276       18.6135887938        5.3255892139
  O        13.9574131240       16.9871308617        6.6653019799
  O        29.9865325863       14.5600851518       10.7485361198
  O        28.0904309932       14.6564985048        9.4946521809
  O        32.0741602469       16.8581657172        8.0871834054
  O        30.9650723682       20.9489709118       10.4111195027
  O        32.9472644735       20.5964864245        9.3384014784
  O        29.5633134295       17.0839695909        9.5764289146
  O        30.8717174491       20.9398893193        5.6581076854
  O        32.8763246049       20.5859925995        6.6666456452
  O        31.6833744911       18.2522367346        6.0057362598
  O        28.2914142304       18.6775895392        8.0772342466
  O        32.4865909074       14.2180835419        9.3333314041
  O        32.4040034593       14.2177354443        6.8231482262
  O        29.9211349483       14.4390087478        5.4922453147
  O        28.0399196991       14.5892877164        6.7525381523
  O        17.8893549915        1.9667311921       10.6627514589
  O        18.9565104157        3.5272034789        9.4079533492
  O        39.1686642488       34.1388762788        7.9972319183
  O        43.2802193949       33.0590465005       10.3317614611
  O        42.0345920362       31.5064883129        9.2416291384
  O        20.3180346868        1.0371666275        9.4799684891
  O        43.2760764220       33.1826674516        5.5749170741
  O        42.0052882384       31.5841279257        6.5829754840
  O        40.5790281418       33.7752042052        5.9361426660
  O        22.3676368985        1.3853370995        7.9981942162
  O        36.6728436649       35.0998314948        9.2332784696
  O        16.4457578355        0.0643171522        6.6682684361
  O        17.9365840215        2.0434513420        5.3265040571
  O        18.9194262380        3.5930891256        6.6661281844
  O        29.8259296276       18.8222950666        4.0845158602
  O        29.7791620966       18.9057224675       12.0913086569
  O        31.2243106225       16.4176861389        4.0853258326
  O        31.2226828122       16.5458905030       12.2346277152
  O        32.2239092429       16.9980134671        1.7309414431
  O        28.4589054180       17.5197703077        1.1843968605
  O        30.2538550662       16.0511562461       14.6407866983
  O        32.6191533338       17.3784625964       14.7563321516
  O        30.6330845686       19.3567686460        1.7459458673
  O        28.8483760863       18.4708457385       14.5633159326
  O        39.4566911958       35.2438404010        4.0020424100
  O        19.1409667941        0.0044130116       11.9905475139
  O        41.9692804768       35.1722662035        4.0872107234
  O        21.6913058785       -0.0692512950       11.8960131908
  O        51.3653443723       18.6143319860        4.0054371228
  O        10.7511036667       18.7471399911       11.9049487613
  O        50.0797767783       16.4127941792        4.0917664826
  O         9.5243247224       16.4831223226       11.9911690818
 Zr         9.2972940083       16.0527501272        6.1824297450
 Zr        49.8366127635       16.0068129267        9.7464247140
 Zr        22.0732274478        0.0305287275        6.1890746778
 Zr        42.4611823807       35.1543460639        9.8015107946
 Zr        29.6098732604       19.0792459471        6.2809436262
 Zr        29.5676655021       19.1773337406        9.8867644728
 Zr        11.0384983896       19.0518471198        9.8278231829
 Zr        11.0444832979       19.1546827409        6.2509761945
 Zr        31.3338975300       16.1305468790        9.9009894203
 Zr        31.3800093288       16.0110192087        6.2705564537
 Zr        18.6013912515       -0.0008546155        9.7630778449
 Zr        18.5068240808       -0.0069667000        6.2139339612
 Zr        12.3028951993       16.3236162095        7.9903262499
 Zr        48.6168305479       18.8330256821        8.0102657955
 Zr        20.3168742418        2.4751207321        7.9916229085
 Zr        40.6440489243       32.6876039912        7.9782901108
 Zr        28.3384090450       16.3435150322        8.0759728298
 Zr        32.6170414116       18.8346822587        8.0502418948
  H        32.3789514389       16.9916421582       13.8721369378
  H        29.1559534919       16.7998650115        1.2158487734
  H        30.6550943556       19.6969923377       -0.6013269718
  H        30.3614028079       15.7945409798        1.0409931653
