     569
 i =      167, E =     -4729.4960035352
  C        11.8588191186       14.0536076011        5.7415470485
  C        12.4563556514       12.8907156989        5.0232249692
  C        11.7045198990       12.1714577296        4.0819295945
  C        12.2809101930       11.1092464723        3.3896075851
  C        13.6216315131       10.7398090931        3.6170362184
  C        14.3549977501       11.4437698900        4.5900544073
  C        13.7820943947       12.5087693029        5.2815190440
  C        14.2611429251        9.6491284524        2.8436395684
  C        14.2563572878        9.6569878559        1.4219426940
  C        13.7431021191       10.7590960441        0.6680785868
  C        49.1267163237       21.2331614776        5.8797790648
  C        48.5498595940       22.4011105101        5.1526781304
  C        49.2999029117       23.0683963557        4.1716840477
  C        48.7329932869       24.1075359831        3.4384627682
  C        47.4024757808       24.5091975142        3.6671130909
  C        46.6715261474       23.8603902196        4.6806667544
  C        47.2339545465       22.8154722537        5.4100280126
  C        46.7722411956       25.5868814455        2.8698165178
  C        46.7611612326       25.5572351688        1.4480522267
  C        47.2610907055       24.4421332033        0.7045651600
  C        14.8603075072        8.5706687006        0.7086650565
  C        14.8920397020        8.5972548006        3.5202792903
  C        49.1131606070       21.2033316881       10.1453108926
  C        48.5277670879       22.3647624121       10.8724662334
  C        49.2670318048       23.0254071992       11.8653875742
  C        48.6907734474       24.0599715773       12.5969039643
  C        47.3603948130       24.4568149311       12.3586617629
  C        46.6399435622       23.8120082118       11.3351057618
  C        47.2134359055       22.7760800061       10.6032911646
  C        46.7219937292       25.5318145667       13.1497019082
  C        46.7335272589       25.5281009390       14.5714117450
  C        47.2488793865       24.4288530046       15.3277999206
  C        40.6172741255       17.0786752006       15.3186240946
  C        40.6339500046       17.1085543909       12.5085563349
  C        11.8830124500       14.0866194045       10.2854467251
  C        12.4724201319       12.9109531036       10.9898382546
  C        11.7147985632       12.1775527252       11.9157013788
  C        12.2814061915       11.0951104188       12.5841192519
  C        13.6203322143       10.7216332834       12.3525306816
  C        14.3584492803       11.4374539224       11.3920379702
  C        13.7930031679       12.5186071426       10.7193306606
  C        14.2539114036        9.6248420524       13.1229050509
  C        14.2525259080        9.6447040811       14.5447423322
  C        13.7425732010       10.7536078481       15.2918260278
  C        22.5092569434        3.2454373550        5.7516000658
  C        23.2157956003        4.3542154307        5.0494316964
  C        24.2121531570        4.0818755610        4.1004520884
  C        24.8306400383        5.1266141380        3.4183302035
  C        24.4678880270        6.4659667088        3.6642363960
  C        23.4991785143        6.7297421031        4.6496742057
  C        22.8766010476        5.6870631840        5.3305355637
  C        25.0662647481        7.5775789582        2.8902849802
  C        25.0472412758        7.5687494637        1.4685304524
  C        24.3534460865        6.5655633526        0.7197640419
  C        38.3078841133       31.9325000564        5.8465847172
  C        37.5906287531       30.8426411095        5.1283345254
  C        36.6304992250       31.1439930333        4.1510098144
  C        36.0260136651       30.1217886244        3.4254518171
  C        36.3691917757       28.7757018645        3.6570320162
  C        37.3014495067       28.4815778591        4.6693554869
  C        37.9091973465       29.5021878565        5.3940322103
  C        35.7729500301       27.6822709776        2.8609196447
  C        35.7841722407       27.7027384422        1.4401950527
  C        36.4765832942       28.7106253740        0.6980112482
  C        25.6700449132        8.6402362675        0.7506461641
  C        25.6504120028        8.6584871428        3.5634065021
  C        38.3267511987       31.9643546979       10.1512168576
  C        37.5974168885       30.8923228662       10.8846874291
  C        36.6616098274       31.2034012271       11.8825480243
  C        36.0463763290       30.1857819856       12.6079573919
  C        36.3548528629       28.8340942451       12.3581388779
  C        37.2662803463       28.5325714305       11.3283565902
  C        37.8830271871       29.5467587049       10.6035607374
  C        35.7498213978       27.7369691481       13.1449308534
  C        35.7721352300       27.7308842917       14.5659512791
  C        36.4711403009       28.7237296982       15.3217553841
  C        46.1355141559       26.6207451174       15.2815401329
  C        46.0882263836       26.5802790739       12.4736475243
  C        22.4621684189        3.2577525816       10.2582710096
  C        23.1572276085        4.3682785955       10.9793402442
  C        24.1608836683        4.0855319247       11.9197212598
  C        24.7886349970        5.1177038519       12.6136601604
  C        24.4336874382        6.4634196888       12.3906771101
  C        23.4534449153        6.7393890427       11.4184299864
  C        22.8210673131        5.7075420602       10.7249635528
  C        25.0616058488        7.5638815617       13.1660799701
  C        25.0452254790        7.5612043540       14.5890244003
  C        24.3496755698        6.5637737180       15.3428781663
  C        26.6309220674       17.8624246426        5.7495997440
  C        25.3256697389       17.9224548092        5.0261332387
  C        25.0921197791       18.8889305455        4.0358721045
  C        23.8718462494       18.9227652941        3.3630126062
  C        22.8545869500       17.9898554099        3.6526068542
  C        23.0883114942       17.0462172108        4.6707943925
  C        24.3064524773       17.0105948969        5.3459514835
  C        21.5792809715       17.9739712923        2.8934972649
  C        21.5769731371       17.9295739214        1.4714433384
  C        22.7802316969       17.7802002913        0.7118612052
  C        34.4175223805       17.2162958124        5.9132539813
  C        35.7113007204       17.1416249530        5.1743264360
  C        35.8999930470       16.1789812104        4.1700686934
  C        37.0839287759       16.1498955622        3.4373630273
  C        38.1099821002       17.0835197981        3.6845674800
  C        37.9228165985       18.0247197944        4.7157023262
  C        36.7384834475       18.0580176308        5.4480062338
  C        39.3643700635       17.0856105733        2.8963331815
  C        39.3600539471       17.0963425967        1.4737275374
  C        38.1533899863       17.2156893888        0.7147952532
  C        20.3297657384       17.9475952263        0.7644373374
  C        20.3546040410       17.9858506610        3.5770049067
  C        34.4434330323       17.2385545810       10.1872657064
  C        35.7437387369       17.1418795415       10.9121809751
  C        35.9511391259       16.1561143415       11.8886848921
  C        37.1413315209       16.1236152107       12.6116030348
  C        38.1530585705       17.0761899178       12.3792292751
  C        37.9512929937       18.0358122010       11.3694603633
  C        36.7607444201       18.0729622226       10.6492783835
  C        39.4022828550       17.0896097644       13.1735880572
  C        39.3798598052       17.0989830938       14.5951538045
  C        38.1626639176       17.2149953368       15.3379519976
  C        35.1504080578       26.6500807189       15.2740564542
  C        35.1561427223       26.6665980739       12.4658992567
  C        26.5717678061       17.8292425286       10.3292658955
  C        25.2584170350       17.8730157961       11.0357597474
  C        24.9954071898       18.8716875166       11.9856867942
  C        23.7764111394       18.8947771811       12.6574194431
  C        22.7910176597       17.9197521247       12.4025115113
  C        23.0489627007       16.9461752722       11.4205234481
  C        24.2686846962       16.9203274437       10.7474599464
  C        21.5262761313       17.9006316793       13.1731963107
  C        21.5498439215       17.8914300289       14.5944883188
  C        22.7669619285       17.7630349101       15.3358533083
  C        14.0463107940       17.8291577022       10.2882908049
  C        15.3503855251       17.8869640342       11.0127846190
  C        15.6068914243       18.8912261861       11.9592835258
  C        16.8157928061       18.9126194360       12.6519525834
  C        17.8019792553       17.9324728685       12.4202840892
  C        17.5502540828       16.9526346785       11.4413700293
  C        16.3409360820       16.9267307490       10.7500800063
  C        19.0705802155       17.9153365320       13.1891473892
  C        19.0689592978       17.9175082140       14.6117358031
  C        17.8622173093       17.8257135283       15.3744290498
  C        46.8026802841       17.2174784706       10.1590846297
  C        45.5108426211       17.1500705684       10.9040670477
  C        45.3074526712       16.1687484613       11.8869995558
  C        44.1248796079       16.1422530467       12.6221170597
  C        43.1134977351       17.0969060003       12.3975560529
  C        43.3142114290       18.0580024526       11.3879033751
  C        44.4977009940       18.0883724300       10.6535475632
  C        41.8589623506       17.0991242386       13.1866336363
  C        41.8641356640       17.0965771540       14.6092574634
  C        43.0723972003       17.1943067165       15.3687263320
  C        20.3156936690       17.9274489774       15.3196573923
  C        20.2944546975       17.8920110975       12.5064160018
  C        46.7827668656       17.2305376968        5.8884680712
  C        45.4782428236       17.1203736153        5.1732422846
  C        45.2605497287       16.1174361729        4.2160532270
  C        44.0714029182       16.0834063915        3.4912977873
  C        43.0685641764       17.0490471693        3.7058819545
  C        43.2769227469       18.0222140559        4.7013371882
  C        44.4673571690       18.0626029038        5.4212627428
  C        41.8205425067       17.0636550365        2.9091817394
  C        41.8444780910       17.0765923105        1.4876569628
  C        43.0630963830       17.1819411087        0.7456782364
  C        46.1532133826       26.6371522620        0.7263011332
  C        46.1624369328       26.6560814710        3.5359361056
  C        14.0466953846       17.8348201376        5.7094662319
  C        15.3684492995       17.9178880809        5.0206399037
  C        15.6345507050       18.9352049012        4.0916019086
  C        16.8628488576       18.9818735585        3.4357406104
  C        17.8540813533       18.0108275309        3.6830575452
  C        17.5949673225       17.0230816290        4.6510071179
  C        16.3684678534       16.9756141969        5.3102175636
  C        19.1209626148       17.9915737702        2.9119847869
  C        19.0951851426       17.9560912697        1.4904493214
  C        17.8751312597       17.8429491081        0.7507672980
  C        28.8095383105       14.0901193498       10.3625175079
  C        28.1992689200       12.9233507474       11.0636792514
  C        28.9155176006       12.2000216259       12.0287408889
  C        28.3148875816       11.1297691747       12.6880011126
  C        26.9842903412       10.7580802774       12.4063981769
  C        26.2897082432       11.4641837444       11.4076048276
  C        26.8870926178       12.5349287413       10.7478518414
  C        26.3124561466        9.6791918759       13.1677112713
  C        26.2884048994        9.7095985565       14.5888901367
  C        26.7839342531       10.8250928179       15.3363377273
  C        32.1747292580       21.2432868801       10.1501885765
  C        32.7655265973       22.4114033834       10.8642757541
  C        32.0144511191       23.0916613114       11.8349068823
  C        32.5832785779       24.1336054052       12.5602038626
  C        33.9177397958       24.5211384905       12.3340725602
  C        34.6509692879       23.8602998530       11.3309203903
  C        34.0847082070       22.8130955746       10.6076040183
  C        34.5470745687       25.5974552560       13.1305906069
  C        34.5497953732       25.5678385207       14.5517368136
  C        34.0426761789       24.4540621725       15.2930403535
  C        25.6751076721        8.6320383614       15.3055815327
  C        25.6814555009        8.6253547459       12.4924643347
  C        32.1902269480       21.2353238289        5.8943991973
  C        32.7813283382       22.3824302537        5.1469591629
  C        32.0226061148       23.0786613678        4.1926886449
  C        32.5996766536       24.1002188341        3.4435994333
  C        33.9468931856       24.4599338450        3.6377146983
  C        34.6900746113       23.7808638034        4.6216087974
  C        34.1186846940       22.7491149595        5.3617755126
  C        34.5741451551       25.5426946563        2.8473624693
  C        34.5614661687       25.5408656490        1.4265284057
  C        34.0464865983       24.4419552639        0.6698977804
  C        40.6067763178       17.0726520683        0.7641177911
  C        40.5894630164       17.0851052663        3.5744523853
  C        28.7057420914       14.0879021172        5.8221364115
  C        28.0856474991       12.9492283020        5.0856575245
  C        28.8249652607       12.2341296204        4.1300486708
  C        28.2389890890       11.1835337225        3.4292723112
  C        26.8988017655       10.8155879030        3.6624000626
  C        26.1758204444       11.5163508076        4.6462617128
  C        26.7585486328       12.5720885023        5.3456073923
  C        26.2609453540        9.7229974560        2.8880668546
  C        26.2641418339        9.7317799098        1.4658887588
  C        26.7706010561       10.8371879040        0.7125081530
  C        18.1354305668        3.1812666802       10.3172957402
  C        17.4060928180        4.2784449443       11.0157539313
  C        16.3903187413        4.0001204897       11.9432423429
  C        15.7426184503        5.0401181354       12.6067051976
  C        16.0946290898        6.3838365960       12.3670756149
  C        17.0840270236        6.6533352809       11.4033147065
  C        17.7331000662        5.6159724886       10.7382921617
  C        15.4703228105        7.4915129414       13.1301396239
  C        15.4855289037        7.4907148330       14.5518487061
  C        16.1871196669        6.4971116514       15.3050022312
  C        42.9461230655       31.8596479639       10.0729706315
  C        43.6465559894       30.7720183472       10.8169176649
  C        44.5918214906       31.0933679707       11.8032304084
  C        45.1975913289       30.0878171628       12.5508436837
  C        44.8714948700       28.7347137814       12.3357054420
  C        43.9460565667       28.4203572946       11.3221354914
  C        43.3371853175       29.4254938702       10.5741474976
  C        45.4889576163       27.6553779431       13.1389126935
  C        45.4929258736       27.6809288730       14.5606033417
  C        44.8057695169       28.6889353207       15.3072168279
  C        14.8565366601        8.5631681578       15.2642414090
  C        14.8751429254        8.5633551721       12.4515762161
  C        42.9465747789       31.9616954982        5.8089868694
  C        43.6918740912       30.8855800299        5.0955569007
  C        44.6560461587       31.1914746456        4.1228394116
  C        45.2775761665       30.1718644827        3.4051530944
  C        44.9541938223       28.8215130301        3.6431547593
  C        44.0212353521       28.5238821043        4.6544437002
  C        43.3929925075       29.5406591685        5.3666088056
  C        45.5631019205       27.7240712091        2.8578915868
  C        45.5332887632       27.7173377792        1.4365933278
  C        44.8269666035       28.7075466929        0.6836111636
  C        35.1567848509       26.6358789243        0.7179566979
  C        35.1901295721       26.5986766283        3.5266519544
  C        18.1486618414        3.2472134848        5.7065712916
  C        17.4301520145        4.3440050387        4.9972921928
  C        16.4148676521        4.0527676954        4.0737832752
  C        15.7665936479        5.0834256686        3.3984265679
  C        16.1213882988        6.4286485575        3.6210560393
  C        17.1129082327        6.7119934943        4.5781829762
  C        17.7605445909        5.6830617297        5.2579423816
  C        15.4908156951        7.5243161108        2.8486567229
  C        15.4965995899        7.5076054683        1.4275312860
  C        16.1933752318        6.5059261045        0.6808154877
  H        10.6722670623       12.4653181438        3.9051983651
  H        11.6945385644       10.5504883454        2.6633488955
  H        15.3922051953       11.1695797973        4.7713875603
  H        14.3517530210       13.0723966360        6.0164945277
  H        13.3760966559       11.6312009488        1.2014292058
  H        50.3226113200       22.7483322123        3.9869785166
  H        49.3195016614       24.6227762303        2.6808841036
  H        45.6420652286       24.1612449682        4.8638733143
  H        46.6630002672       22.2902510326        6.1721834574
  H        47.6296455406       23.5757666009        1.2462588970
  H        14.8725538479        8.5886031811        4.6085894960
  H        50.2870625759       22.7024799093       12.0602583416
  H        49.2692289785       24.5753709205       13.3603988683
  H        45.6105701249       24.1093536983       11.1460434024
  H        46.6526075835       22.2539470453        9.8317097281
  H        47.6077333239       23.5517689569       14.7968912382
  H        40.6397882182       17.0780828944       11.4206277579
  H        48.6871137384       14.0951037508        7.8000267941
  H        10.6812317433       12.4664190274       12.0928773988
  H        11.6895651465       10.5245164913       13.2966142058
  H        15.3940225739       11.1598887881       11.2064106558
  H        14.3654689203       13.0882207461        9.9910876241
  H        13.3757743851       11.6222374905       14.7531949280
  H        47.9301357794       14.2187344362        9.7108534184
  H        47.7800031589       14.3739941459        6.4953626336
  H        49.0832745650       18.5520416021       10.8672737579
  H        10.4160335293       14.1343935142        7.9987463535
  H        24.4801900528        3.0453578833        3.9080303606
  H        25.6041690785        4.9151820318        2.6832438452
  H        23.2111712899        7.7604340800        4.8459986443
  H        22.1067763668        5.8814408476        6.0732538666
  H        23.7917274748        5.8076336176        1.2579383450
  H        36.3827923729       32.1860674338        3.9634132248
  H        35.2788485499       30.3559978686        2.6704115676
  H        37.5729355190       27.4440504307        4.8525770081
  H        38.6544872293       29.2863901801        6.1557586484
  H        37.0446706733       29.4613008268        1.2397166424
  H        25.6780990410        8.6436205991        4.6514716149
  H        36.4390470282       32.2480816111       12.0875257019
  H        35.3162483638       30.4298759410       13.3764398204
  H        37.5140567301       27.4918483703       11.1304077787
  H        38.6107632848       29.3218004612        9.8277845382
  H        37.0362648947       29.4840674844       14.7904778612
  H        46.1098574760       26.5877575865       11.3856167919
  H        44.6683435463       35.1163020819        7.8138794627
  H        24.4400422328        3.0479881315       12.0890235614
  H        25.5698023409        4.8900017235       13.3358536451
  H        23.1668504493        7.7731518194       11.2361003215
  H        22.0486033489        5.9193669771        9.9892483413
  H        23.7845495049        5.8049817636       14.8094064902
  H        44.9540560000       34.3906807997        9.6954435418
  H        44.9017021744       34.2069091349        6.4905350761
  H        40.6659865458       33.2093742696       10.8531935022
  H        23.1503196999        1.9586204117        8.0049775866
  H        25.8797356654       19.6039638352        3.8076188498
  H        23.6933134860       19.6799662410        2.6026135991
  H        22.3157675833       16.3159035182        4.9026181873
  H        24.4968574510       16.2696544351        6.1187117305
  H        23.7197806009       17.6479931770        1.2405402589
  H        35.1014389913       15.4682356487        3.9693565544
  H        37.2276951784       15.3946771197        2.6677675568
  H        38.7056708229       18.7542022781        4.9128434735
  H        36.5796710484       18.8002874011        6.2269166623
  H        37.2134794147       17.3396106223        1.2448164158
  H        20.3625826278       18.0395567655        4.6642819202
  H        35.1616702994       15.4327024702       12.0793757152
  H        37.2995867436       15.3558144561       13.3658259696
  H        38.7248338252       18.7781808002       11.1840842593
  H        36.5856996206       18.8322877934        9.8909893948
  H        37.2299166233       17.3370687215       14.7949221509
  H        35.1217915545       26.6917793859       11.3784045167
  H        28.5149027290       21.0877878013        7.9902455591
  H        25.7580611931       19.6229276363       12.1783070685
  H        23.5721034392       19.6727375057       13.3898516256
  H        22.2967257786       16.1865036007       11.2180462314
  H        24.4836071172       16.1568266546       10.0036734991
  H        23.6963174995       17.6190778116       14.7929931949
  H        29.0123769709       21.7177028349        9.7574630008
  H        29.1205607239       21.7682951977        6.6093614180
  H        32.0596446271       18.5469492792       11.0058275715
  H        27.3974936663       19.0796985643        8.0892892137
  H        14.8484313460       19.6504363286       12.1365980859
  H        17.0115223902       19.6976102669       13.3792597961
  H        18.3015403142       16.1882237024       11.2537762661
  H        16.1347515773       16.1570890532       10.0100901017
  H        16.9190247912       17.7090562342       14.8486418084
  H        46.0935054545       15.4394965204       12.0684775781
  H        43.9700270431       15.3727363291       13.3752573501
  H        42.5426903715       18.8040049442       11.2086665983
  H        44.6666809852       18.8452674683        9.8910773532
  H        44.0140043077       17.3110226527       14.8397990923
  H        20.2879538081       17.9214830598       11.4182693765
  H        46.0392248718       15.3785222258        4.0410373223
  H        43.9071440515       15.3046320596        2.7496893775
  H        42.5087512475       18.7730630510        4.8744162633
  H        44.6477431248       18.8332503621        6.1667664334
  H        43.9976829614       17.2880369106        1.2888729116
  H        46.1994784440       26.6826977180        4.6233737950
  H        52.7412227665       21.0627250609        8.1946567287
  H        14.8683881234       19.6831295879        3.8996751953
  H        17.0669374336       19.7736785118        2.7181464156
  H        18.3515058532       16.2668683049        4.8502963423
  H        16.1542600402       16.1994189297        6.0409295713
  H        16.9416033547       17.7394093792        1.2956982169
  H        52.3227006977       21.6734980981        6.2943469050
  H        52.0134703316       21.7022574673        9.4956762824
  H        49.0675083260       18.6073275755        5.2041771350
  H        13.2475067635       19.0164396563        7.9774471839
  H        29.9397881646       12.4917026234       12.2499322223
  H        28.8729820935       10.5681582182       13.4340321191
  H        25.2613294799       11.1889166099       11.1827388815
  H        26.3472197317       13.1005876420        9.9924809576
  H        27.1504303448       11.6934457808       14.7972299409
  H        30.9895824806       22.7776374716       12.0166944534
  H        31.9976488960       24.6610614055       13.3099698839
  H        35.6837346006       24.1525587055       11.1524464705
  H        34.6550904397       22.2759449982        9.8533943563
  H        33.6736319449       23.5893779887       14.7489432693
  H        25.7189225810        8.6038498500       11.4047034808
  H        30.9792205282       22.8080252298        4.0476485814
  H        32.0072476366       24.6401008717        2.7080868463
  H        35.7328262819       24.0510480064        4.7749875044
  H        34.6955348278       22.1998592318        6.1022915685
  H        33.6796327639       23.5682434795        1.2011694732
  H        40.5837936363       17.0492460887        4.6622233100
  H        32.5166502691       14.1493780374        8.2440753567
  H        29.8621777838       12.5096090135        3.9545287218
  H        28.8198632772       10.6280843344        2.6961761770
  H        25.1386927204       11.2454501601        4.8331048444
  H        26.1954420749       13.1297979822        6.0903255868
  H        27.1246053277       11.7153546305        1.2449586501
  H        33.2927360872       14.2056894859        6.4336259428
  H        33.4090565882       14.3934245040        9.6030492210
  H        32.1034971804       18.5101315398        5.1128294032
  H        30.2369402630       14.1969881836        8.0641843527
  H        16.1181852942        2.9636332232       12.1296136608
  H        14.9531412743        4.8207982575       13.3223515824
  H        17.3665642226        7.6861954844       11.2102698291
  H        18.5151962023        5.8186458498       10.0105158557
  H        16.7537771138        5.7398516122       14.7714980464
  H        44.8278955254       32.1404686011       11.9776002055
  H        45.9372715390       30.3416077809       13.3069582049
  H        43.6837539149       27.3782408578       11.1517015452
  H        42.6009402416       29.1901213094        9.8091406693
  H        44.2304976286       29.4367550540       14.7689002540
  H        14.8515209000        8.5467315924       11.3633510377
  H        44.8993366409       32.2341639663        3.9311066880
  H        46.0242096480       30.4131133377        2.6516527827
  H        43.7647740399       27.4841143128        4.8464662428
  H        42.6470294891       29.3178724646        6.1255793404
  H        44.2684682193       29.4704606140        1.2181627533
  H        35.1661636380       26.6050380450        4.6146774520
  H        36.6050913683       35.1343990116        8.1804253923
  H        16.1436596334        3.0132128580        3.9041465344
  H        14.9741823503        4.8566540167        2.6884166707
  H        17.3965769011        7.7474406757        4.7549404995
  H        18.5435298257        5.8935317724        5.9825818557
  H        16.7649282905        5.7557592628        1.2192269430
  H        36.2784819810       34.4829236641        6.2730900695
  H        36.3811241260       34.2092705301        9.4993170491
  H        40.5823294521       33.2042207577        5.1530027119
  H        17.4707589575        1.9481833658        7.9743216002
  H        29.2365098336       19.4209769987       12.6070534704
  H        29.6990945316       18.7686487297        3.3927177201
  H        30.6050995520       15.3075845714        3.9517046682
  H        31.2130862644       15.5358069073       12.4169687493
  H        27.9433103943       17.6805667677       14.2704352089
  H        29.1052309639       15.3935672059       14.3036739317
  H        31.6587859150       16.7730861012        1.7091115929
  H        18.8533294581        0.8690955668       12.3354217858
  H        40.5278941120       35.2290276584        3.9518378892
  H        42.3256381938       34.4203383888        3.5896906835
  H        22.0878885206        0.6924203387       12.3518295734
  H        11.5969942572       18.7128112966       12.3822609224
  H        52.2650737403       18.4309791431        3.6776927140
  H        49.2550579080       16.4765503588        3.5843219634
  H        10.1510280579       15.7982280886       12.2923857067
  H        50.8501096476       17.6926304435        3.9541175282
  H        10.0465037363       17.3947020638       12.0519023477
  H        20.2144090802        0.0023987115       12.0420927662
  H        39.1837519049       36.1244961626        3.6862370305
 Ni        30.0597856199       17.0588013137        2.6624491141
 Ni        30.9474921305       16.1100505413       -0.4159471680
 Ni        29.4224080241       17.7186340264        0.1740113850
 Ni        29.9716908816       17.3012396581       13.0769700658
  O        10.6499908418       14.3651564540        5.4858371070
  O        12.6132493557       14.6575550085        6.5838991662
  O        49.1476055980       16.8459122596        7.9896858201
  O        50.3500833699       20.9359919348        5.6480886254
  O        48.3484380257       20.5931937328        6.6659604437
  O        11.0514983307       17.0538090481        6.5007685625
  O        50.3208894167       20.8816487578       10.4068573890
  O        48.3466612377       20.5866825490        9.3270835492
  O        49.5435758130       18.2483476201       10.0682209118
  O        12.3590511471       18.6246050578        7.9996372101
  O        48.6931934530       14.1486683304        6.7512820238
  O         8.2098602619       14.2104911717        9.3225683762
  O        10.7353445692       14.5067720261       10.6643357429
  O        12.5718096504       14.5828626748        9.3284571996
  O        22.8446742152        2.0446155436        5.4868851205
  O        21.6046314648        3.5919367717        6.5907918359
  O        42.0586491951       34.1379149838        7.9791670118
  O        37.9823194531       33.1399732014        5.5728134597
  O        39.2191699244       31.5773822485        6.6677435116
  O        20.3086721317        1.0401486240        6.5022832248
  O        38.0251974884       33.1874547430       10.4142184214
  O        39.2199473592       31.5845073738        9.3256133215
  O        40.6524604271       33.7697429215       10.0603730951
  O        18.2552132209        1.3767036175        7.9968782463
  O        44.6221981956       35.1006420909        6.7587350099
  O        24.2054465190        0.0000930590        9.3208297672
  O        22.7534643116        2.0593511093       10.5845856399
  O        21.6248760360        3.5967861792        9.3435728163
  O        27.5488482702       18.6906615694        5.4183162101
  O        26.7317603418       16.9861545233        6.6729767156
  O        30.6648015508       19.4116917835        8.0677338272
  O        33.5346726766       16.3312114416        5.6518387267
  O        34.2707683499       18.1787114904        6.7415649404
  O        29.5650157223       17.0760033762        6.5820875019
  O        33.5608116901       16.3392854523       10.4102036242
  O        34.3016549181       18.2426688832        9.4076324600
  O        31.6512103438       18.3173436271       10.1537855138
  O        30.3229211400       15.1643585616        8.0740954067
  O        28.5544278064       21.0346670252        6.9088823965
  O        28.5158584995       20.9561622147        9.4115365095
  O        27.4603536347       18.6803432524       10.6613623459
  O        26.6931397557       16.9321081149        9.4161858439
  O        13.1482527659       18.6930884386       10.5870916980
  O        13.9190484207       16.9162209572        9.4047397704
  O        50.5958739641       19.3501154650        8.0204207010
  O        47.6825220185       16.3272469016       10.4175847464
  O        46.9499277952       18.1755395927        9.3258822031
  O        11.0697415493       17.0154830271        9.4894747148
  O        47.6745338194       16.3359223712        5.6528237651
  O        46.9247611696       18.2359049926        6.6631310302
  O        49.5688911705       18.3176755664        5.9823903659
  O        10.3186080642       15.1002336633        7.9971241492
  O        52.6707383965       21.0278607211        9.2418106543
  O        12.1467825283       20.8912703779        6.6733410626
  O        13.1072291769       18.6141590958        5.3256740850
  O        13.9577298374       16.9878370361        6.6642550781
  O        30.0015522631       14.4361973175       10.6639162825
  O        28.0787761219       14.6593691941        9.4817578313
  O        32.0994027779       16.9054932722        8.0625477672
  O        30.9613489441       20.9511635437       10.4112136274
  O        32.9439235649       20.6066942944        9.3436238960
  O        29.5613244872       17.0815239213        9.5727582729
  O        30.9579887203       20.9568817945        5.6703042177
  O        32.9588189458       20.5834838459        6.6713758258
  O        31.6092794560       18.2578449584        5.9090599863
  O        28.2845370014       18.6835531970        8.0779710433
  O        32.4927959182       14.2137088389        9.3238379682
  O        32.4017366647       14.2217607696        6.8207773457
  O        29.8993794673       14.4245801159        5.5043227554
  O        28.0054890827       14.6452111256        6.7385731108
  O        17.8892686435        1.9667935943       10.6628073786
  O        18.9562527670        3.5272548315        9.4080406178
  O        39.1687558378       34.1391700262        7.9973093918
  O        43.2802480060       33.0590813194       10.3317874019
  O        42.0347089621       31.5064353603        9.2417223807
  O        20.3180299021        1.0370761271        9.4801949394
  O        43.2760910276       33.1826574521        5.5749094262
  O        42.0053328321       31.5841309395        6.5829730844
  O        40.5792910032       33.7754183240        5.9361820805
  O        22.3675304185        1.3849087441        7.9981479403
  O        36.6727084493       35.0999877830        9.2331298251
  O        16.4455386400        0.0645403582        6.6683734220
  O        17.9364838414        2.0435073350        5.3263884667
  O        18.9190036548        3.5931986321        6.6659931014
  O        29.6461843303       19.5551321841        4.0764099655
  O        29.8645414543       18.9147473039       12.0580422090
  O        31.0061972217       16.1965955734        4.0710421188
  O        31.3007877610       16.4108752073       11.9883487738
  O        32.2765033644       16.4856382386        0.9135665164
  O        30.0176414246       15.6622883134       14.0845852892
  O        28.8157722920       18.0958728895       14.4041757409
  O        39.4568120554       35.2438869631        4.0019257482
  O        19.1412075869        0.0046472474       11.9905907128
  O        41.9695887492       35.1727801330        4.0872654961
  O        21.6914982888       -0.0689427262       11.8960286301
  O        51.3651012243       18.6143143760        4.0053538930
  O        10.7510789103       18.7471321806       11.9048917665
  O        50.0793695942       16.4127612417        4.0918245503
  O         9.5249423668       16.4830302128       11.9911675910
 Zr         9.2971502626       16.0528054693        6.1824051882
 Zr        49.8367016470       16.0067893577        9.7465053827
 Zr        22.0734871388        0.0307128480        6.1890712914
 Zr        42.4613645240       35.1543074562        9.8014397453
 Zr        29.5886305965       19.1144675067        6.3227202369
 Zr        29.5809025817       19.1657056217        9.8932323827
 Zr        11.0382418398       19.0518469257        9.8276761638
 Zr        11.0443050257       19.1547643006        6.2509020294
 Zr        31.3471876714       16.1052865925        9.8535514497
 Zr        31.3690924345       16.0256073556        6.2641340964
 Zr        18.6014616363       -0.0002958046        9.7631285651
 Zr        18.5067561383       -0.0065213349        6.2140775419
 Zr        12.3028413773       16.3236605653        7.9899474421
 Zr        48.6162695486       18.8328032893        8.0102580151
 Zr        20.3155681761        2.4743466463        7.9910904801
 Zr        40.6446267821       32.6881933475        7.9785931246
 Zr        28.3277272599       16.3554204236        8.0827564792
 Zr        32.6366091776       18.8530428670        8.0660334643
  H        29.0736358218       17.8036118057        1.7580252373
  H        30.4019488740       20.1460485429        3.9001115708
  H        32.6757227563       17.3310524854        0.6258656416
