     569
 i =      155, E =     -4729.5008584603
  C        11.8585298890       14.0533765126        5.7415836940
  C        12.4559395991       12.8903193844        5.0234732975
  C        11.7044987565       12.1719884677        4.0811453085
  C        12.2808781560       11.1098078396        3.3887653092
  C        13.6212076164       10.7394085567        3.6170556578
  C        14.3540063750       11.4422801988        4.5913358624
  C        13.7811380789       12.5072143614        5.2829099647
  C        14.2608488959        9.6488713420        2.8435971927
  C        14.2561965799        9.6568596645        1.4218917721
  C        13.7430367345       10.7589595356        0.6679433516
  C        49.1265985366       21.2333116218        5.8797376146
  C        48.5498761652       22.4011193771        5.1526653091
  C        49.2999130390       23.0684378357        4.1716434298
  C        48.7329593154       24.1075373355        3.4384402636
  C        47.4023892056       24.5091660423        3.6670115793
  C        46.6714344266       23.8602584751        4.6805123903
  C        47.2338769124       22.8153721156        5.4098851303
  C        46.7722113771       25.5868823338        2.8697267782
  C        46.7613916406       25.5573269714        1.4479650318
  C        47.2612748830       24.4422133375        0.7044664586
  C        14.8603037700        8.5706257463        0.7086053236
  C        14.8916739422        8.5969092416        3.5202189193
  C        49.1130324262       21.2034868387       10.1453548842
  C        48.5277360354       22.3647859937       10.8724316872
  C        49.2669821565       23.0255368461       11.8653405126
  C        48.6906308844       24.0600739775       12.5967735979
  C        47.3601859983       24.4568223237       12.3585795485
  C        46.6397738976       23.8118548349       11.3350861018
  C        47.2133097648       22.7759446760       10.6033063762
  C        46.7217715607       25.5317844655       13.1496235599
  C        46.7336303304       25.5281658308       14.5713232811
  C        47.2490202202       24.4289295567       15.3277040132
  C        40.6209246035       17.0725915482       15.3068706096
  C        40.6297322892       17.0912831685       12.4970933292
  C        11.8828139485       14.0863840939       10.2854361198
  C        12.4718973132       12.9103260869       10.9893528347
  C        11.7147187816       12.1779421418       11.9163961699
  C        12.2812101984       11.0954753493       12.5848590536
  C        13.6196458078       10.7208238188       12.3521947830
  C        14.3571110144       11.4353342595       11.3901759344
  C        13.7917661025       12.5164954771       10.7174313722
  C        14.2533720835        9.6242732084       13.1227383623
  C        14.2522735828        9.6444399197       14.5445868353
  C        13.7424460985       10.7533977631       15.2916864990
  C        22.5125454217        3.2436484963        5.7536684864
  C        23.2296734824        4.3471391190        5.0549446877
  C        24.2254498946        4.0638003496        4.1084529484
  C        24.8554499659        5.1012071688        3.4262319812
  C        24.5051984530        6.4438560965        3.6705659680
  C        23.5378928608        6.7186635581        4.6543623518
  C        22.9031778439        5.6830827088        5.3350358659
  C        25.1124841376        7.5487875747        2.8945068418
  C        25.0808436985        7.5433870326        1.4732045231
  C        24.3761721159        6.5453659746        0.7278591318
  C        38.2981118558       31.9283635867        5.8519473934
  C        37.5562934629       30.8406814600        5.1501165635
  C        36.5909835120       31.1495400147        4.1792116933
  C        35.9597335757       30.1330263113        3.4676203879
  C        36.2784232170       28.7812490029        3.7035089899
  C        37.2132549317       28.4798001868        4.7120441210
  C        37.8484488405       29.4953387561        5.4231941134
  C        35.6666388241       27.6943078486        2.9044527181
  C        35.7047623358       27.7096184748        1.4827272597
  C        36.4174245615       28.7100466462        0.7491344676
  C        25.7016678538        8.6144314641        0.7531911335
  C        25.7134203007        8.6212755096        3.5650965798
  C        38.3299987712       31.9606670038       10.1601043037
  C        37.6121462219       30.8880986658       10.9090339653
  C        36.6781563558       31.1986425584       11.9096474568
  C        36.0667521023       30.1825004763       12.6421265163
  C        36.3740785550       28.8285360410       12.3989171688
  C        37.2890047306       28.5278959091       11.3709071640
  C        37.9021141729       29.5406110871       10.6393038298
  C        35.7577869228       27.7311503535       13.1813603989
  C        35.7509047421       27.7286854771       14.6040793840
  C        36.4378887898       28.7203456122       15.3724892896
  C        46.1356828184       26.6208296599       15.2814626066
  C        46.0877203046       26.5800858908       12.4735674441
  C        22.4604968656        3.2556535701       10.2577230458
  C        23.1536965481        4.3640718459       10.9811347773
  C        24.1550911795        4.0777083572       11.9225934013
  C        24.7823614360        5.1076609326       12.6192681289
  C        24.4283976684        6.4535533204       12.3970699688
  C        23.4501305125        6.7330893525       11.4240436232
  C        22.8181489081        5.7034391131       10.7278070337
  C        25.0588597395        7.5514222270       13.1714825379
  C        25.0534123914        7.5444565820       14.5942918241
  C        24.3612500535        6.5469085809       15.3510348399
  C        26.6153452606       17.8584975828        5.7843736064
  C        25.3079062700       17.9092072637        5.0625921016
  C        25.0371475811       18.9265585800        4.1337849048
  C        23.8248453004       18.9491768800        3.4468866269
  C        22.8466347592       17.9590247394        3.6687103494
  C        23.1126922702       16.9639872878        4.6281387008
  C        24.3273489088       16.9354343585        5.3119792352
  C        21.5740856591       17.9488391423        2.9029128765
  C        21.5753469352       17.9360253743        1.4805169091
  C        22.7829758343       17.8278382570        0.7207049546
  C        34.4417153862       17.1882107309        5.9176904358
  C        35.7348431135       17.1373842007        5.1743823321
  C        35.9425541597       16.1593480886        4.1889608860
  C        37.1219111480       16.1433163676        3.4499505176
  C        38.1270265836       17.1036551533        3.6764841156
  C        37.9228843373       18.0619805585        4.6875092851
  C        36.7401837395       18.0837255789        5.4237034401
  C        39.3795243772       17.1074810257        2.8864704734
  C        39.3707144201       17.1055276843        1.4644505563
  C        38.1609226041       17.2166283027        0.7093683460
  C        20.3287215727       17.9479481746        0.7717357183
  C        20.3494937713       17.9452528912        3.5847976540
  C        34.4394435889       17.2346571618       10.1855809044
  C        35.7403495857       17.1330212758       10.9083356121
  C        35.9438276157       16.1502436403       11.8885425479
  C        37.1344439238       16.1150438927       12.6104105190
  C        38.1499934261       17.0619975114       12.3728490932
  C        37.9523871210       18.0179111161       11.3587034745
  C        36.7615664192       18.0576411867       10.6395190862
  C        39.3999118426       17.0747244244       13.1654295811
  C        39.3811994670       17.0891375248       14.5869968968
  C        38.1658236102       17.2074784236       15.3325541567
  C        35.1109391339       26.6524546630       15.3049993171
  C        35.1744093297       26.6580046808       12.4951758460
  C        26.5634749307       17.8113362332       10.3262133537
  C        25.2546271313       17.8521625325       11.0407656982
  C        24.9568921907       18.9032749241       11.9219295741
  C        23.7399700636       18.9276336211       12.5979569119
  C        22.7898398362       17.9043171779       12.4106274653
  C        23.0809212735       16.8756835663       11.4969271952
  C        24.2998076389       16.8472915299       10.8218606344
  C        21.5242076278       17.8959307229       13.1818588152
  C        21.5496928229       17.9091805388       14.6025458501
  C        22.7702857659       17.8160913913       15.3441441526
  C        14.0453534010       17.8272654407       10.2899009007
  C        15.3488872644       17.8806521766       11.0180260014
  C        15.6096715517       18.8874899952       11.9604830045
  C        16.8183331672       18.9060562323       12.6540580741
  C        17.8000125355       17.9201517924       12.4276025160
  C        17.5434023004       16.9360590481       11.4543992434
  C        16.3344138560       16.9135131330       10.7619235692
  C        19.0692959995       17.9045065936       13.1961869047
  C        19.0685096010       17.9140530169       14.6185257850
  C        17.8612648534       17.8185635399       15.3799736003
  C        46.8021396989       17.2154307201       10.1562662784
  C        45.5083771124       17.1430835217       10.8952808666
  C        45.3038127775       16.1571864304       11.8732536586
  C        44.1195972940       16.1268782766       12.6049197356
  C        43.1088363595       17.0822289166       12.3815278868
  C        43.3098343465       18.0467065506       11.3753959707
  C        44.4950319740       18.0809271376       10.6443376510
  C        41.8559778692       17.0840542219       13.1720242244
  C        41.8656604812       17.0866517699       14.5942442606
  C        43.0764519951       17.1874223102       15.3492928255
  C        20.3150865776       17.9335488878       15.3270524877
  C        20.2936442502       17.8740761390       12.5139854133
  C        46.7852662228       17.2323021543        5.8860877564
  C        45.4848787134       17.1274894141        5.1650375826
  C        45.2690295551       16.1274482944        4.2044699778
  C        44.0826350112       16.0980689475        3.4755480508
  C        43.0818025073       17.0659961565        3.6890442694
  C        43.2891305533       18.0374179395        4.6863863155
  C        44.4763866002       18.0728027981        5.4110323543
  C        41.8341193237       17.0817352606        2.8936322081
  C        41.8547151221       17.0839908228        1.4722057085
  C        43.0714017287       17.1830044784        0.7263269329
  C        46.1534314428       26.6372375182        0.7262203673
  C        46.1621904301       26.6559631321        3.5358701435
  C        14.0444130734       17.8318914267        5.7094610516
  C        15.3654967031       17.9075554284        5.0193700102
  C        15.6395576568       18.9277220152        4.0964201348
  C        16.8687568012       18.9673274851        3.4423474621
  C        17.8503618330       17.9858994955        3.6860081010
  C        17.5830632279       16.9940808151        4.6469071174
  C        16.3558789445       16.9541188495        5.3045738697
  C        19.1174542909       17.9643625437        2.9173913770
  C        19.0935558676       17.9434087822        1.4961878781
  C        17.8736581534       17.8315496443        0.7559532543
  C        28.8075850531       14.0895022804       10.3939473290
  C        28.1938892646       12.9155243881       11.0787927880
  C        28.9131826263       12.1808953201       12.0330478769
  C        28.3133622464       11.1064477079       12.6846084007
  C        26.9799434091       10.7431991679       12.4068334335
  C        26.2833353251       11.4571661559       11.4152166603
  C        26.8810816305       12.5314645195       10.7614361840
  C        26.3102276851        9.6645057977       13.1682598391
  C        26.2988535876        9.6907456415       14.5894287197
  C        26.8009841718       10.8040789445       15.3353242959
  C        32.1861041639       21.2359254402       10.1440819884
  C        32.7780081267       22.4011455561       10.8669438389
  C        32.0222374602       23.0875998049       11.8302727710
  C        32.5886544361       24.1287503689       12.5596755347
  C        33.9270538428       24.5131363602       12.3477139911
  C        34.6656126949       23.8453095236       11.3523864554
  C        34.1016383741       22.7985691863       10.6247589490
  C        34.5499144739       25.5910845959       13.1511451655
  C        34.5250510764       25.5676989312       14.5732175164
  C        34.0066592041       24.4557730631       15.3094942556
  C        25.6917498782        8.6115720498       15.3084156652
  C        25.6733891148        8.6137743404       12.4950871016
  C        32.0803376924       21.1997376767        5.8754128965
  C        32.6460090819       22.3683400825        5.1375663707
  C        31.9111062984       23.0139235296        4.1313570164
  C        32.4811738360       24.0556623798        3.4014432117
  C        33.8003403060       24.4806366920        3.6563251183
  C        34.5158256286       23.8487348363        4.6919721564
  C        33.9507534849       22.8044243497        5.4183825641
  C        34.4402330319       25.5650693852        2.8743030157
  C        34.4681679833       25.5547291061        1.4517750415
  C        33.9785525553       24.4498705945        0.6862157647
  C        40.6151268796       17.0761666987        0.7520003689
  C        40.6050331770       17.1118784328        3.5621878388
  C        28.7450897942       14.0648549367        5.8164626228
  C        28.1381402105       12.9157475020        5.0817074197
  C        28.8702582007       12.2315855703        4.0995456328
  C        28.2917551136       11.1737096664        3.4025255016
  C        26.9648804402       10.7749615129        3.6611889223
  C        26.2504091844       11.4468139786        4.6707683968
  C        26.8275897094       12.5045024843        5.3704795758
  C        26.3228834073        9.6854214670        2.8878977214
  C        26.3070044183        9.7012911589        1.4659915759
  C        26.8029811787       10.8105008539        0.7113667129
  C        18.1355088283        3.1808405782       10.3171399411
  C        17.4061647403        4.2781453896       11.0158562835
  C        16.3902663092        3.9997578306       11.9431349835
  C        15.7424799421        5.0397188338       12.6066367761
  C        16.0945676180        6.3834032966       12.3671342117
  C        17.0842074067        6.6529671775       11.4036689965
  C        17.7333650816        5.6156345981       10.7386403838
  C        15.4701279194        7.4911020916       13.1301277372
  C        15.4855652074        7.4906006166       14.5518403827
  C        16.1872755024        6.4970861060       15.3049981866
  C        42.9457639002       31.8595231108       10.0728505977
  C        43.6461370431       30.7717897029       10.8168119728
  C        44.5918846508       31.0931196062       11.8026616033
  C        45.1976194876       30.0875719334       12.5503103969
  C        44.8709595477       28.7345371216       12.3356630984
  C        43.9449017764       28.4201797770       11.3226733937
  C        43.3360719246       29.4253276123       10.5746345171
  C        45.4886128985       27.6552578878       13.1388468929
  C        45.4929456148       27.6809442872       14.5605451202
  C        44.8059874835       28.6890769578       15.3071708778
  C        14.8564701902        8.5630481445       15.2641665241
  C        14.8745999146        8.5626862011       12.4515017061
  C        42.9463782385       31.9615778981        5.8089592673
  C        43.6915375049       30.8853818537        5.0953926405
  C        44.6565605021       31.1912971047        4.1235280410
  C        45.2781414748       30.1717034924        3.4058433687
  C        44.9538842341       28.8214293044        3.6430268038
  C        44.0199045465       28.5237411337        4.6533265089
  C        43.3915900646       29.5405142957        5.3654674194
  C        45.5630382288       27.7240348509        2.8578188709
  C        45.5334875837       27.7174057768        1.4365160757
  C        44.8272780832       28.7077151320        0.6835639171
  C        35.0845591909       26.6443704033        0.7505993100
  C        35.0513997178       26.6222516993        3.5609292390
  C        18.1486583062        3.2469302650        5.7066217358
  C        17.4300961840        4.3438509592        4.9972239515
  C        16.4146241404        4.0525813555        4.0739696936
  C        15.7663151418        5.0832248202        3.3985669192
  C        16.1213020034        6.4284042084        3.6210098855
  C        17.1130567980        6.7117827957        4.5778577428
  C        17.7607521317        5.6828592404        5.2576157321
  C        15.4907115388        7.5241181495        2.8486159725
  C        15.4966476116        7.5075835918        1.4274792192
  C        16.1935407179        6.5059508346        0.6808118148
  H        10.6725616286       12.4665165469        3.9036611780
  H        11.6947299434       10.5517419088        2.6617928334
  H        15.3907676988       11.1670653955        4.7736834350
  H        14.3503346526       13.0698111616        6.0190252282
  H        13.3759332940       11.6310690793        1.2012095402
  H        50.3226266019       22.7484376528        3.9869022000
  H        49.3193871628       24.6228172930        2.6808318905
  H        45.6419047496       24.1609397400        4.8636242329
  H        46.6627789181       22.2901219530        6.1719093632
  H        47.6296151404       23.5757355517        1.2461237383
  H        14.8719460414        8.5880170729        4.6085240013
  H        50.2870350127       22.7027334650       12.0602525911
  H        49.2689660231       24.5755608122       13.3602950208
  H        45.6103265034       24.1089887941       11.1460855877
  H        46.6523737201       22.2537437815        9.8318533344
  H        47.6076232800       23.5517250726       14.7968301052
  H        40.6327387615       17.0580268520       11.4092435591
  H        48.6869985699       14.0948046602        7.8000207092
  H        10.6815402239       12.4676365584       12.0944912034
  H        11.6896091110       10.5257203667       13.2982251106
  H        15.3921358049       11.1565392070       11.2033256555
  H        14.3637283767       13.0849553457        9.9878993864
  H        13.3755171435       11.6219855538       14.7530852920
  H        47.9301088227       14.2178990428        9.7107464675
  H        47.7797963850       14.3727332082        6.4951256980
  H        49.0821791705       18.5518884736       10.8668678034
  H        10.4158051052       14.1343602218        7.9986931933
  H        24.4830550746        3.0243591651        3.9178699468
  H        25.6276745170        4.8816790477        2.6921403407
  H        23.2607418424        7.7526203376        4.8490675664
  H        22.1339964436        5.8855935529        6.0763130523
  H        23.8161307452        5.7881252955        1.2687421542
  H        36.3603217736       32.1941135980        3.9838674902
  H        35.2120295109       30.3774653605        2.7162692307
  H        37.4673897302       27.4391205629        4.9026057108
  H        38.5955886454       29.2689235716        6.1802732390
  H        36.9796994172       29.4596116811        1.2983142819
  H        25.7524942764        8.6017758898        4.6527202178
  H        36.4505716284       32.2431659993       12.1102369304
  H        35.3360074447       30.4308823176       13.4086705284
  H        37.5405936905       27.4874654540       11.1759491670
  H        38.6289664113       29.3114407859        9.8637714232
  H        37.0167462768       29.4774474436       14.8512903880
  H        46.1089363652       26.5874187502       11.3855275042
  H        44.6683468608       35.1161940701        7.8139469003
  H        24.4326509211        3.0394345731       12.0897012371
  H        25.5627206027        4.8788103202       13.3419134904
  H        23.1655435864        7.7676916036       11.2434998744
  H        22.0470907804        5.9163475385        9.9909756721
  H        23.7892741711        5.7913756034       14.8202674324
  H        44.9539719918       34.3905298694        9.6952854589
  H        44.9019526831       34.2067910863        6.4907214912
  H        40.6660362966       33.2090404201       10.8531669575
  H        23.1504132183        1.9578163728        8.0054432454
  H        25.7870001456       19.6964367639        3.9664920748
  H        23.6192656852       19.7438053169        2.7327574528
  H        22.3689540706       16.1901686354        4.8072122254
  H        24.5448754767       16.1531786071        6.0355575064
  H        23.7249540708       17.7215267093        1.2512357467
  H        35.1629534661       15.4224878693        4.0112107484
  H        37.2807971066       15.3774067620        2.6939594689
  H        38.6905567039       18.8119730064        4.8666816256
  H        36.5665447767       18.8384385327        6.1873199364
  H        37.2228235933       17.3424965337        1.2423716655
  H        20.3558520112       17.9785356754        4.6728739212
  H        35.1511160186       15.4315805733       12.0834189826
  H        37.2898231884       15.3496505639       13.3676288530
  H        38.7294289958       18.7555903356       11.1693890932
  H        36.5892563437       18.8139564012        9.8776001901
  H        37.2311505998       17.3254976621       14.7919189250
  H        35.1597907621       26.6801111172       11.4071163896
  H        28.5051777326       21.0899447656        7.8733257725
  H        25.6852526470       19.7015938948       12.0480938437
  H        23.5065126601       19.7456273477       13.2762998290
  H        22.3547284810       16.0790473356       11.3486620871
  H        24.5408933559       16.0437443626       10.1297808735
  H        23.7024344226       17.7005672211       14.7990782626
  H        28.9724871669       21.7325147387        9.7673987907
  H        29.1918205696       21.7141313920        6.5508112886
  H        32.1098819426       18.5432885284       10.9734773597
  H        27.4155804139       19.0898602835        8.0768246650
  H        14.8549167653       19.6513544945       12.1337878751
  H        17.0171818620       19.6935611074       13.3778226684
  H        18.2902243577       16.1662003148       11.2712046020
  H        16.1247618531       16.1412042476       10.0256635630
  H        16.9189919540       17.7000922047       14.8529568446
  H        46.0904092328       15.4284079482       12.0540212027
  H        43.9631561458       15.3552205421       13.3555265004
  H        42.5376997426       18.7923527332       11.1974114061
  H        44.6654732441       18.8405100469        9.8849065279
  H        44.0164859366       17.3005187236       14.8168893048
  H        20.2881078119       17.8872320694       11.4255275526
  H        46.0462972188       15.3866166709        4.0314537543
  H        43.9180861986       15.3206707354        2.7326053752
  H        42.5220858239       18.7897613089        4.8578600169
  H        44.6562390861       18.8412044105        6.1589111481
  H        44.0076849732       17.2917818142        1.2660796515
  H        46.1988169449       26.6824396810        4.6233246530
  H        52.7409041413       21.0625063570        8.1946023370
  H        14.8794702270       19.6828677132        3.9085730962
  H        17.0812673521       19.7610891906        2.7293903311
  H        18.3327270999       16.2298988910        4.8416678284
  H        16.1331175722       16.1760671516        6.0306658708
  H        16.9405788887       17.7231700072        1.3006929682
  H        52.3215940027       21.6730564695        6.2947041359
  H        52.0128709929       21.7017743546        9.4956838571
  H        49.0669529709       18.6079122115        5.2042626140
  H        13.2470238244       19.0166227300        7.9776544564
  H        29.9399149471       12.4669987333       12.2500175014
  H        28.8727702124       10.5357569986       13.4226950785
  H        25.2536136254       11.1853439163       11.1922494376
  H        26.3413426437       13.1032830736       10.0105909627
  H        27.1600999040       11.6749598345       14.7954725319
  H        30.9934586553       22.7802039899       12.0015804031
  H        31.9967875613       24.6593078686       13.3023375403
  H        35.7015308102       24.1315103846       11.1822144464
  H        34.6783446091       22.2588289987        9.8770440310
  H        33.6566687206       23.5851273582       14.7623073149
  H        25.7030560808        8.5942922241       11.4070741022
  H        30.8983261732       22.6760073403        3.9232937889
  H        31.9034692410       24.5557354039        2.6271346938
  H        35.5370233057       24.1637463217        4.8963123997
  H        34.5112048710       22.2951648177        6.1987611166
  H        33.6068702833       23.5743984648        1.2111652773
  H        40.6011913071       17.0847041595        4.6501851013
  H        32.5041304434       14.1478532764        8.2507592415
  H        29.8926143266       12.5438967325        3.8992981271
  H        28.8674786025       10.6390926173        2.6501209548
  H        25.2237560189       11.1514991381        4.8773701015
  H        26.2726154143       13.0392539222        6.1375885457
  H        27.1618316753       11.6866036115        1.2437333577
  H        33.3087690476       14.2314265370        6.4660231448
  H        33.4059552798       14.4063124138        9.5979824388
  H        32.1210351958       18.4538472968        5.1437353414
  H        30.1886021477       14.1528406939        8.0782159777
  H        16.1181330108        2.9632379170       12.1293528114
  H        14.9528904564        4.8203153394       13.3221380415
  H        17.3668400929        7.6858297106       11.2107964353
  H        18.5156314068        5.8182321769       10.0110184326
  H        16.7538825934        5.7398036940       14.7714629895
  H        44.8283153138       32.1401976548       11.9766782204
  H        45.9376413280       30.3413361214       13.3060993136
  H        43.6819712032       27.3781348473       11.1527650453
  H        42.5993049075       29.1900003450        9.8101081465
  H        44.2306927502       29.4368850086       14.7688572006
  H        14.8506648861        8.5456916854       11.3632881917
  H        44.9004539199       32.2339628758        3.9324331125
  H        46.0253622946       30.4129270994        2.6529153567
  H        43.7624628081       27.4840500388        4.8444606764
  H        42.6446875560       29.3177375129        6.1235244537
  H        44.2688645269       29.4706619504        1.2181643559
  H        35.0039864483       26.6347452675        4.6482229053
  H        36.6053339618       35.1339825548        8.1806705756
  H        16.1433460224        3.0130103537        3.9045129317
  H        14.9737782046        4.8564096732        2.6887066429
  H        17.3969225194        7.7472106278        4.7543967741
  H        18.5439887300        5.8932230816        5.9820188730
  H        16.7650387306        5.7557894478        1.2192993347
  H        36.2791176028       34.4819547181        6.2734199362
  H        36.3814999084       34.2087545056        9.4994783739
  H        40.5789404755       33.2016213069        5.1540683090
  H        17.4709312186        1.9469045487        7.9740968725
  H        28.6030664031       18.7631502387       11.9707455455
  H        28.8213291295       18.7492114748        3.7434910104
  H        31.7502274645       15.7225010173        3.5385883992
  H        31.2747715862       15.6546047105       12.5140574441
  H        27.9719221989       18.8106121363       14.4895631315
  H        29.3499018296       15.5086952685       14.3634071017
  H        32.6101577674       17.1049410850        1.2571733179
  H        18.8538642228        0.8690102297       12.3352977794
  H        40.5282036674       35.2289139831        3.9521147876
  H        42.3236211799       34.4184753911        3.5905446890
  H        22.0876442633        0.6921651187       12.3512899839
  H        11.5969891487       18.7129833851       12.3822892713
  H        52.2641926296       18.4309379638        3.6770183875
  H        49.2549566213       16.4768726052        3.5845924358
  H        10.1499816870       15.7981234406       12.2928970481
  H        50.8493571892       17.6922608562        3.9543317868
  H        10.0458926004       17.3944588716       12.0520392511
  H        20.2152923600        0.0022251144       12.0418640046
  H        39.1839195792       36.1245692181        3.6864846129
 Ni        30.6480735451       17.6024338397        2.6676839625
 Ni        30.9045865278       16.4724119575       -0.1633375181
 Ni        29.7151550642       18.3833131094        0.4978618596
 Ni        30.0607896256       17.4395504256       13.1566424308
  O        10.6498580273       14.3651788631        5.4858353024
  O        12.6131172265       14.6575199001        6.5838605505
  O        49.1478399691       16.8460549499        7.9898228073
  O        50.3501982060       20.9359361611        5.6482074086
  O        48.3485221427       20.5932489434        6.6659775464
  O        11.0512882062       17.0540193259        6.5006010004
  O        50.3209724388       20.8816479430       10.4068039632
  O        48.3467533198       20.5866969519        9.3270732653
  O        49.5435064684       18.2484500734       10.0682908457
  O        12.3587535832       18.6245054291        7.9997625006
  O        48.6932199744       14.1486202300        6.7513106542
  O         8.2098802641       14.2103750288        9.3225223302
  O        10.7353462996       14.5067676227       10.6643134263
  O        12.5717683387       14.5828604465        9.3284784687
  O        22.8443449209        2.0422811145        5.4874299954
  O        21.6055953782        3.5921039059        6.5895351389
  O        42.0580101774       34.1371872265        7.9789254556
  O        37.9813067380       33.1371359387        5.5726171273
  O        39.2172036501       31.5751902029        6.6658167638
  O        20.3083381110        1.0393156114        6.5020510382
  O        38.0243391309       33.1849330334       10.4156717983
  O        39.2183058810       31.5828929037        9.3275283988
  O        40.6522002720       33.7691784394       10.0601642855
  O        18.2556907399        1.3758488401        7.9968251007
  O        44.6222385970       35.1004935074        6.7587708341
  O        24.2053985494        0.0000047535        9.3207743240
  O        22.7528794691        2.0575493779       10.5837024182
  O        21.6243139665        3.5958809442        9.3424623009
  O        27.4938929547       18.7506990508        5.4918871849
  O        26.7615098241       16.9366782007        6.6547936034
  O        30.6683154743       19.4062306629        8.0153014812
  O        33.5873613487       16.2723502804        5.6678245829
  O        34.2758789289       18.1642433217        6.7337036834
  O        29.5745479174       17.0472845393        6.5827852026
  O        33.5536471862       16.3383410203       10.4128085193
  O        34.2994917029       18.2386260347        9.4059745303
  O        31.6474411883       18.3208960476       10.1486748898
  O        30.2961053837       15.1174160427        8.0846095245
  O        28.5518904295       21.0328784909        6.8286313354
  O        28.5133728307       20.9564828608        9.4045301771
  O        27.4514904915       18.6750163701       10.6588738602
  O        26.6909141070       16.9285946625        9.4123684866
  O        13.1489570025       18.6928616806       10.5876602704
  O        13.9191817848       16.9159657157        9.4049724442
  O        50.5956270697       19.3502228425        8.0205759341
  O        47.6832253542       16.3269128092       10.4170645946
  O        46.9504308465       18.1755097330        9.3254942116
  O        11.0694434850       17.0157106535        9.4897336099
  O        47.6760741491       16.3358021417        5.6529993375
  O        46.9259758797       18.2357188510        6.6636304562
  O        49.5683078946       18.3177137969        5.9823076007
  O        10.3185826949       15.1002335669        7.9970435014
  O        52.6707547998       21.0278973913        9.2418364760
  O        12.1468027629       20.8911867497        6.6732084254
  O        13.1076773755       18.6138090871        5.3257465192
  O        13.9570284714       16.9868770261        6.6655508376
  O        29.9909436663       14.4401731400       10.7320573241
  O        28.0867363242       14.6542912853        9.4977867320
  O        32.0738541574       16.8599428648        8.0711393795
  O        30.9672392503       20.9478307876       10.4096217277
  O        32.9469287139       20.5999620037        9.3346979977
  O        29.5606201582       17.0817075439        9.5729928879
  O        30.8547229811       20.8835271879        5.6517414155
  O        32.8718829234       20.5851113160        6.6638072759
  O        31.6822700500       18.2488135613        5.9863607024
  O        28.2950684168       18.6785574067        8.0677791792
  O        32.4899001473       14.2124662684        9.3276220486
  O        32.4044752136       14.2161908219        6.8221703104
  O        29.9173629664       14.4368652792        5.4885444573
  O        28.0368315609       14.5887298176        6.7493044675
  O        17.8891906163        1.9665712518       10.6628132871
  O        18.9561848336        3.5271335492        9.4079705498
  O        39.1685606413       34.1386006577        7.9971686598
  O        43.2801971277       33.0588891330       10.3316876546
  O        42.0343984954       31.5064333515        9.2416040002
  O        20.3175568613        1.0366389735        9.4802092421
  O        43.2760746420       33.1825104444        5.5748798879
  O        42.0052308902       31.5840918863        6.5829999856
  O        40.5789311311       33.7747881666        5.9358431122
  O        22.3673033422        1.3845666697        7.9979678841
  O        36.6727905236       35.0996684763        9.2333574410
  O        16.4455966738        0.0642179808        6.6682948117
  O        17.9364745705        2.0433942462        5.3263703544
  O        18.9190073372        3.5931485178        6.6659326938
  O        29.7378501070       18.6846618155        4.0668217672
  O        29.5618039681       18.9873948021       12.0789571097
  O        31.3085903318       16.4006187408        4.0825111332
  O        31.2599909420       16.4843814755       11.9953331532
  O        31.8197705039       16.5570142471        1.4287035295
  O        30.2386554705       15.8963873176       14.2434205415
  O        28.9371283026       18.9051105551       14.5805743471
  O        39.4568528488       35.2438732200        4.0019993701
  O        19.1417278313        0.0045673400       11.9904978611
  O        41.9695030282       35.1725341641        4.0870816425
  O        21.6912287489       -0.0693847537       11.8958424648
  O        51.3645661295       18.6142384081        4.0054346346
  O        10.7511321482       18.7472538088       11.9048875805
  O        50.0795063166       16.4128819302        4.0917392937
  O         9.5243215449       16.4830832784       11.9912241301
 Zr         9.2960012930       16.0527012235        6.1823237944
 Zr        49.8357029000       16.0067192077        9.7466504218
 Zr        22.0733715581        0.0298574826        6.1888865471
 Zr        42.4609692746       35.1535433971        9.8008239804
 Zr        29.6066619361       19.0611543722        6.2284026397
 Zr        29.6144933365       19.2040624249        9.8003208034
 Zr        11.0370509401       19.0521913421        9.8275464346
 Zr        11.0428596411       19.1549566830        6.2513430787
 Zr        31.3299363970       16.0949914357        9.8664249444
 Zr        31.3745193075       16.0009394241        6.2498963045
 Zr        18.6012455102       -0.0016963519        9.7634969495
 Zr        18.5066929711       -0.0078788262        6.2135903708
 Zr        12.3007763059       16.3232613665        7.9901897582
 Zr        48.6150525805       18.8328869855        8.0103980785
 Zr        20.3155077746        2.4734319197        7.9904366501
 Zr        40.6430416485       32.6868578414        7.9781173312
 Zr        28.3536042217       16.3271425168        8.0786093647
 Zr        32.6326376684       18.8235762331        8.0377523861
  H        29.4140895126       17.3327789374        1.5666322125
  H        29.2575934481       19.3615513036       13.7264647613
  H        30.6768372075       18.8425256441        1.6551669904
