     571
 i =      123, E =     -4761.6736517825
  C        11.8587186689       14.0535769286        5.7416204849
  C        12.4562438437       12.8905656019        5.0233384929
  C        11.7045766777       12.1717301505        4.0815974011
  C        12.2809294385       11.1095072291        3.3892375931
  C        13.6214564590       10.7396073416        3.6170569848
  C        14.3545797133       11.4430679821        4.5906385706
  C        13.7817132363       12.5080571006        5.2821552828
  C        14.2610182547        9.6489635978        2.8436446048
  C        14.2563926803        9.6569187954        1.4219383088
  C        13.7431943166       10.7590345976        0.6680388489
  C        49.1265739448       21.2332558824        5.8797874831
  C        48.5497558688       22.4011089553        5.1526448415
  C        49.2998844449       23.0685616256        4.1718094648
  C        48.7329677947       24.1076769489        3.4385761276
  C        47.4023473505       24.5091512905        3.6670139101
  C        46.6712589078       23.8601043885        4.6803130248
  C        47.2336995987       22.8152145890        5.4097023255
  C        46.7721834296       25.5868907720        2.8697299605
  C        46.7613087309       25.5573550283        1.4479640953
  C        47.2612648786       24.4422706289        0.7044738891
  C        14.8603653827        8.5706054055        0.7086583889
  C        14.8917454588        8.5969675535        3.5202742741
  C        49.1131044069       21.2034060895       10.1453631378
  C        48.5277343643       22.3647563368       10.8725139326
  C        49.2670708537       23.0256446817       11.8652371492
  C        48.6907501055       24.0602064470       12.5966884176
  C        47.3602551747       24.4568060196       12.3586210811
  C        46.6397070092       23.8116854534       11.3353348624
  C        47.2132415498       22.7757554137       10.6035629459
  C        46.7218511124       25.5318172490       13.1496335079
  C        46.7336273650       25.5282193682       14.5713357997
  C        47.2490467010       24.4289953128       15.3277118508
  C        40.6192526894       17.0836681480       15.3048301106
  C        40.6241970734       17.0900719254       12.4954771133
  C        11.8828939548       14.0865926250       10.2854774848
  C        12.4722030579       12.9107006734       10.9896887820
  C        11.7146987310       12.1775871225       11.9158661015
  C        12.2812414661       11.0951158004       12.5843133207
  C        13.6200194171       10.7212946728       12.3524333136
  C        14.3579706018       11.4367364398       11.3915201601
  C        13.7925776796       12.5179211377       10.7188162814
  C        14.2536335223        9.6245458000       13.1228510937
  C        14.2524941435        9.6445667756       14.5446942617
  C        13.7426168125       10.7535039787       15.2917826553
  C        22.5081812862        3.2434401251        5.7504404974
  C        23.2155034365        4.3481981450        5.0434500357
  C        24.2106316121        4.0673804704        4.0957516608
  C        24.8333845050        5.1063228656        3.4091717408
  C        24.4759770063        6.4476362401        3.6503934752
  C        23.5070654718        6.7200202138        4.6332221322
  C        22.8800734723        5.6829344699        5.3185076308
  C        25.0830052735        7.5539935776        2.8763314706
  C        25.0646761623        7.5471976046        1.4547926227
  C        24.3682325100        6.5476205510        0.7037902623
  C        38.3037287063       31.9278093344        5.8460244098
  C        37.5771185235       30.8387037065        5.1308854892
  C        36.6177637713       31.1440699837        4.1530908995
  C        36.0004576779       30.1255761799        3.4317494866
  C        36.3268223204       28.7752401912        3.6658536476
  C        37.2582386600       28.4773275037        4.6786582696
  C        37.8796093906       29.4945830129        5.3989993368
  C        35.7203583598       27.6845814930        2.8681951121
  C        35.7453828965       27.7006611388        1.4463991178
  C        36.4473213520       28.7039986173        0.7068401296
  C        25.6925305299        8.6173503824        0.7395842073
  C        25.6764325759        8.6280278170        3.5516203214
  C        38.3260980133       31.9623845540       10.1531880563
  C        37.5974417882       30.8896620595       10.8883792492
  C        36.6642050254       31.1993869715       11.8895189390
  C        36.0482727616       30.1814143353       12.6146164249
  C        36.3519118665       28.8286113701       12.3625882482
  C        37.2614139225       28.5287859313       11.3300349281
  C        37.8790257378       29.5432835499       10.6055549013
  C        35.7427961270       27.7305353447       13.1472685880
  C        35.7565026619       27.7245281165       14.5692381207
  C        36.4523471232       28.7157970521       15.3301506552
  C        46.1356450428       26.6208739694       15.2814612271
  C        46.0878533649       26.5801349028       12.4735643654
  C        22.4635451388        3.2560097862       10.2553133903
  C        23.1639879131        4.3653138132       10.9721103113
  C        24.1738202927        4.0800633901       11.9048882181
  C        24.8066723359        5.1108394463       12.5957405956
  C        24.4495625035        6.4564734132       12.3770989170
  C        23.4636229447        6.7351600301       11.4117974520
  C        22.8266048509        5.7046578716       10.7208922977
  C        25.0795332171        7.5541420612       13.1534781538
  C        25.0640737229        7.5465071236       14.5760852470
  C        24.3662075272        6.5483553651       15.3270296766
  C        26.6343792680       17.8282683627        5.7430940676
  C        25.3218158775       17.8855413208        5.0323092037
  C        25.0605447378       18.8849842744        4.0815932870
  C        23.8415511069       18.9144495591        3.4074697785
  C        22.8479010161       17.9466239702        3.6597327702
  C        23.1041992453       16.9722040620        4.6429419795
  C        24.3240726489       16.9388631628        5.3170269241
  C        21.5739441597       17.9363314748        2.8970941973
  C        21.5756556868       17.9159052026        1.4744483281
  C        22.7817542179       17.7877542184        0.7156440856
  C        34.4434000103       17.1906570629        5.9092220307
  C        35.7383691922       17.1322986670        5.1717263501
  C        35.9411323903       16.1633936649        4.1765801945
  C        37.1213809199       16.1488165953        3.4389434062
  C        38.1316608521       17.1010085485        3.6771098987
  C        37.9327030512       18.0486367964        4.6993409899
  C        36.7492406088       18.0695712702        5.4335389190
  C        39.3832540029       17.1096633017        2.8862455088
  C        39.3726462208       17.1176910855        1.4643397663
  C        38.1625756053       17.2413894437        0.7120547750
  C        20.3301149566       17.9380853490        0.7643176275
  C        20.3486247610       17.9403584115        3.5782178805
  C        34.4373813565       17.2409699953       10.1850052359
  C        35.7342094482       17.1375860908       10.9120143398
  C        35.9176795989       16.1853947137       11.9255988027
  C        37.1096997430       16.1493998431       12.6449341701
  C        38.1442410501       17.0667457933       12.3749812253
  C        37.9636681030       17.9930566779       11.3298997322
  C        36.7731445785       18.0326891353       10.6112123324
  C        39.3946831164       17.0815490479       13.1654961619
  C        39.3782169712       17.1049795062       14.5872921705
  C        38.1654089536       17.2350488961       15.3353020355
  C        35.1285787740       26.6450450038       15.2746844171
  C        35.1514832965       26.6598026105       12.4653217739
  C        26.5778428400       17.8280621358       10.3209655296
  C        25.2646826508       17.8691909714       11.0331203674
  C        25.0024548101       18.8719335939       11.9789570321
  C        23.7841431734       18.8986636737       12.6524722983
  C        22.7981276618       17.9227389516       12.4036890570
  C        23.0557567957       16.9437727064       11.4269735262
  C        24.2748259986       16.9149678154       10.7520094712
  C        21.5325929063       17.9074716183       13.1741199512
  C        21.5541006310       17.8995451046       14.5956685397
  C        22.7709729076       17.7800340615       15.3393210039
  C        14.0473727452       17.8297374087       10.2879144063
  C        15.3531959252       17.8890669761       11.0111320851
  C        15.6114773021       18.8955261318       11.9548664957
  C        16.8213130112       18.9184017308       12.6463713605
  C        17.8072862420       17.9375336382       12.4165178865
  C        17.5539996407       16.9555594309       11.4400979284
  C        16.3436862841       16.9282667164       10.7500360896
  C        19.0760604718       17.9207226952       13.1864594727
  C        19.0728349671       17.9201270213       14.6091102288
  C        17.8647101026       17.8257161104       15.3692807630
  C        46.8010828048       17.2147778128       10.1553008692
  C        45.5055452777       17.1409215292       10.8918632061
  C        45.2999320778       16.1552246239       11.8698434101
  C        44.1148568825       16.1247401721       12.6003571260
  C        43.1038684757       17.0797000990       12.3760320160
  C        43.3053385041       18.0430353902       11.3688098136
  C        44.4914620267       18.0775155424       10.6390216616
  C        41.8515207484       17.0843535982       13.1680472508
  C        41.8630880924       17.0919543934       14.5903734871
  C        43.0751293780       17.1909018696       15.3435220644
  C        20.3186499836       17.9288190718       15.3191192513
  C        20.3012659639       17.8978634368       12.5058758040
  C        46.7860705491       17.2325789480        5.8855437094
  C        45.4868284860       17.1283046279        5.1625902526
  C        45.2734792523       16.1302710531        4.1993851885
  C        44.0879730139       16.1010047760        3.4690411414
  C        43.0857685575       17.0670341146        3.6841475173
  C        43.2908833518       18.0366895020        4.6836694598
  C        44.4772525280       18.0720632089        5.4095745274
  C        41.8377006356       17.0832288613        2.8896238935
  C        41.8564497365       17.0897986871        1.4681987128
  C        43.0721446520       17.1873045947        0.7206261161
  C        46.1533712361       26.6372794200        0.7262169930
  C        46.1621912987       26.6559789029        3.5358603323
  C        14.0448919750       17.8318700152        5.7083373946
  C        15.3652048061       17.9069703834        5.0163673508
  C        15.6377787844       18.9246722488        4.0900261894
  C        16.8661496846       18.9636664190        3.4340327799
  C        17.8494478627       17.9839490518        3.6785421722
  C        17.5834636400       16.9947237733        4.6428024027
  C        16.3572324709       16.9553608729        5.3024314795
  C        19.1169154649       17.9608365281        2.9097964546
  C        19.0942435045       17.9398172181        1.4880851687
  C        17.8751283047       17.8345289806        0.7456370214
  C        28.7974915318       14.1208585493       10.3979221242
  C        28.1944184366       12.9463466910       11.0915762445
  C        28.9234006898       12.2016881912       12.0303965825
  C        28.3305439494       11.1181897955       12.6748696036
  C        26.9951151513       10.7558881427       12.4053808149
  C        26.2874987746       11.4829238816       11.4313261153
  C        26.8778247873       12.5654365533       10.7848655272
  C        26.3295225979        9.6686447581       13.1601904162
  C        26.3104984111        9.6922779791       14.5810295651
  C        26.8111370875       10.8037549433       15.3306441146
  C        32.1803545408       21.2440286871       10.1064917915
  C        32.7663771385       22.4070019338       10.8364849757
  C        32.0125379959       23.0811628649       11.8095614811
  C        32.5789197566       24.1188434231       12.5446388809
  C        33.9136759591       24.5114929971       12.3257877741
  C        34.6503117838       23.8543232331       11.3222333556
  C        34.0874365394       22.8103521670       10.5908434526
  C        34.5390522789       25.5894680118       13.1262761079
  C        34.5349677122       25.5612602923       14.5478734917
  C        34.0314305018       24.4448338391       15.2870663058
  C        25.6965096540        8.6136266878       15.2949900666
  C        25.6973302643        8.6180325850       12.4818937701
  C        32.1164053400       21.1983671379        5.8401194150
  C        32.7016364695       22.3585180376        5.1058375699
  C        31.9720749972       23.0045831592        4.0957458989
  C        32.5462731245       24.0458920385        3.3704911705
  C        33.8657187836       24.4666200156        3.6310821405
  C        34.5767255573       23.8328587121        4.6684177100
  C        34.0056493875       22.7902205680        5.3936651890
  C        34.5041603843       25.5497591490        2.8478330839
  C        34.5182409045       25.5403766148        1.4254737645
  C        34.0238169495       24.4348430436        0.6639178541
  C        40.6158101920       17.0865774700        0.7499165933
  C        40.6096853556       17.1095504835        3.5601788858
  C        28.7386866420       14.0685918344        5.7871972662
  C        28.1239090182       12.9179380803        5.0619263184
  C        28.8607043175       12.2049836030        4.1033715244
  C        28.2755617672       11.1478501274        3.4115335465
  C        26.9376039370       10.7770174156        3.6528947338
  C        26.2186572451       11.4741991825        4.6417863930
  C        26.8023532346       12.5320736302        5.3361770268
  C        26.2937276846        9.6894908593        2.8783741447
  C        26.2929008174        9.7036235436        1.4567198736
  C        26.8010016017       10.8102439637        0.7064861846
  C        18.1353388966        3.1809414656       10.3171687862
  C        17.4059186153        4.2781643079       11.0156898810
  C        16.3904852985        3.9997688594       11.9435129617
  C        15.7427347133        5.0397285269       12.6070196474
  C        16.0943253918        6.3834887308       12.3670598431
  C        17.0833386966        6.6530335655       11.4029148192
  C        17.7324540814        5.6157144467       10.7378553450
  C        15.4700677241        7.4911962062       13.1301340627
  C        15.4854949084        7.4905657297       14.5518476539
  C        16.1871431114        6.4970077633       15.3050081785
  C        42.9458556969       31.8594686144       10.0728812913
  C        43.6462135032       30.7718414326       10.8168091135
  C        44.5918084999       31.0931770343       11.8028279654
  C        45.1975403226       30.0876329972       12.5504591507
  C        44.8710814504       28.7345621493       12.3356475120
  C        43.9451967415       28.4202154917       11.3224882893
  C        43.3363479525       29.4253481612       10.5744649233
  C        45.4886995630       27.6552890586       13.1388383833
  C        45.4929399237       27.6809891317       14.5605276825
  C        44.8058588570       28.6890424592       15.3071454458
  C        14.8565599630        8.5630723062       15.2642223062
  C        14.8747273100        8.5629470815       12.4515579098
  C        42.9464970816       31.9615047671        5.8089509720
  C        43.6916751164       30.8854297134        5.0954821637
  C        44.6562923277       31.1913341338        4.1231890692
  C        45.2777842964       30.1717412414        3.4054654398
  C        44.9539637799       28.8214167278        3.6430610736
  C        44.0204438533       28.5237579418        4.6538143737
  C        43.3922082864       29.5405241898        5.3660041512
  C        45.5629976931       27.7240336694        2.8578030812
  C        45.5333988318       27.7174337202        1.4365045299
  C        44.8271061577       28.7076739000        0.6835387667
  C        35.1215878288       26.6336469624        0.7199340782
  C        35.1165161056       26.6088614983        3.5294658872
  C        18.1484963086        3.2467989262        5.7066119948
  C        17.4299173292        4.3436597135        4.9973019808
  C        16.4148579732        4.0524295145        4.0735593315
  C        15.7665701721        5.0830961865        3.3981912106
  C        16.1210985239        6.4283397208        3.6210895777
  C        17.1123116781        6.7116695395        4.5785395657
  C        17.7599548162        5.6827292887        5.2582870803
  C        15.4906433423        7.5240787007        2.8486704742
  C        15.4965980598        7.5075029531        1.4275356680
  C        16.1934016587        6.5058411051        0.6808214075
  H        10.6724698644       12.4659261642        3.9045339504
  H        11.6946248388       10.5510714698        2.6626740340
  H        15.3915651392       11.1683621121        4.7724631533
  H        14.3511158174       13.0712117187        6.0176929305
  H        13.3760978105       11.6311164256        1.2013624735
  H        50.3226545672       22.7486398954        3.9872241640
  H        49.3195066461       24.6230521076        2.6811155949
  H        45.6416689066       24.1606737172        4.8632689707
  H        46.6625715008       22.2898183970        6.1716048485
  H        47.6296983885       23.5758493121        1.2461609314
  H        14.8719730899        8.5881519401        4.6085791063
  H        50.2871774603       22.7029128270       12.0600139830
  H        49.2691951393       24.5757921577       13.3600633695
  H        45.6101963904       24.1086974419       11.1464865995
  H        46.6522617998       22.2533765115        9.8322588027
  H        47.6077656411       23.5518507332       14.7968144537
  H        40.6258508779       17.0492576784       11.4078849193
  H        48.6870325524       14.0949265142        7.7999916323
  H        10.6812412970       12.4667134238       12.0932740445
  H        11.6894169153       10.5247659595       13.2970205348
  H        15.3933671734       11.1587561440       11.2055336808
  H        14.3648820458       13.0872271429        9.9902071810
  H        13.3756944048       11.6220745910       14.7531386023
  H        47.9300784095       14.2185681392        9.7107592598
  H        47.7799610418       14.3734048188        6.4952190255
  H        49.0820674985       18.5515809695       10.8669207795
  H        10.4157606758       14.1343892481        7.9988127773
  H        24.4742802017        3.0288224689        3.9085728503
  H        25.6066003574        4.8890069448        2.6754748094
  H        23.2235603662        7.7528575246        4.8246880642
  H        22.1105593427        5.8829802938        6.0600831725
  H        23.8042120393        5.7901435249        1.2402651086
  H        36.3797753480       32.1875995822        3.9608283343
  H        35.2555395104       30.3673641773        2.6768070456
  H        37.5192290330       27.4379211592        4.8668394111
  H        38.6232543672       29.2709484678        6.1602856238
  H        37.0139435424       29.4539213477        1.2511281953
  H        25.7051007753        8.6097953074        4.6395924965
  H        36.4430411346       32.2438541782       12.0972739272
  H        35.3198505907       30.4267581999       13.3843222923
  H        37.5069796783       27.4882062714       11.1284632672
  H        38.6041740242       29.3170164809        9.8276692771
  H        37.0237670174       29.4743393085       14.8030351900
  H        46.1091456134       26.5874322465       11.3855260602
  H        44.6682015711       35.1161089460        7.8139775270
  H        24.4529484084        3.0419476373       12.0706205854
  H        25.5922695151        4.8823555024       13.3128663670
  H        23.1761905987        7.7694031429       11.2336668354
  H        22.0493872635        5.9171946206        9.9904267388
  H        23.8002886769        5.7918089526       14.7912459795
  H        44.9535696483       34.3901033155        9.6949880272
  H        44.9016904680       34.2068076560        6.4905814915
  H        40.6651161644       33.2083483709       10.8526505276
  H        23.1503413406        1.9576968336        8.0041125961
  H        25.8227760567       19.6358741056        3.8864598819
  H        23.6442964789       19.6956210129        2.6764115125
  H        22.3484673093       16.2166312680        4.8479060256
  H        24.5321108138       16.1729585783        6.0605432128
  H        23.7215575250       17.6638362791        1.2457731039
  H        35.1555345904       15.4353207548        3.9890008278
  H        37.2761769996       15.3917900801        2.6732916729
  H        38.7045487663       18.7920523058        4.8876260568
  H        36.5784326296       18.8176073079        6.2042819816
  H        37.2256866930       17.3734909491        1.2458042957
  H        20.3540451631       17.9787246709        4.6661565457
  H        35.1090651096       15.4950583837       12.1539482919
  H        37.2491161830       15.4064853246       13.4269750673
  H        38.7544556467       18.7089215748       11.1155774972
  H        36.6147011934       18.7662259952        9.8244163082
  H        37.2298065901       17.3617462425       14.7983877891
  H        35.1223414231       26.6854465964       11.3776473709
  H        28.5076287633       21.0811570099        7.8670164111
  H        25.7655807837       19.6244184293       12.1652715305
  H        23.5802451907       19.6816175535       13.3797699630
  H        22.3033123869       16.1830601064       11.2290593261
  H        24.4885798631       16.1484865827       10.0108726598
  H        23.7024248049       17.6505121893       14.7964741091
  H        29.0120655893       21.7215971726        9.7288122998
  H        29.1722326324       21.7323518483        6.5427853567
  H        32.0861929866       18.6012571403       10.9030288917
  H        27.4000958088       19.0630566233        8.0147258720
  H        14.8534450113       19.6553641869       12.1314590079
  H        17.0174705265       19.7051495024       13.3716967459
  H        18.3046067361       16.1902490214       11.2533777599
  H        16.1367973055       16.1567089196       10.0121985149
  H        16.9223674558       17.7129687654       14.8411143117
  H        46.0867041618       15.4269848959       12.0521033854
  H        43.9584035663       15.3535837592       13.3514868405
  H        42.5331702857       18.7883483717       11.1895382398
  H        44.6621817935       18.8368539576        9.8793896464
  H        44.0146442448       17.3012708176       14.8096317824
  H        20.2965953656       17.9261554813       11.4176812999
  H        46.0519000088       15.3907948701        4.0257925144
  H        43.9250654977       15.3250222588        2.7242649940
  H        42.5225785930       18.7875633070        4.8558780265
  H        44.6555697933       18.8389829033        6.1593358594
  H        44.0094657241       17.2941039361        1.2589837512
  H        46.1989093144       26.6824289513        4.6233121900
  H        52.7410472825       21.0625998563        8.1946728672
  H        14.8771439027       19.6789890535        3.9010268320
  H        17.0767069327       19.7561940047        2.7191255698
  H        18.3340106795       16.2317732585        4.8389772507
  H        16.1366706577       16.1790070146        6.0310235636
  H        16.9406086267       17.7285916855        1.2883536065
  H        52.3221779416       21.6732123135        6.2944427246
  H        52.0131001178       21.7019676658        9.4956757792
  H        49.0674686813       18.6078555605        5.2041367573
  H        13.2472578695       19.0165978688        7.9771176464
  H        29.9528546916       12.4833564223       12.2403035633
  H        28.8978727837       10.5392340666       13.4004307486
  H        25.2552488264       11.2142603210       11.2164401454
  H        26.3293445143       13.1462421639       10.0474368132
  H        27.1786619043       11.6726324633       14.7932050186
  H        30.9862150167       22.7673241710       11.9844759204
  H        31.9894239628       24.6404949501       13.2955099666
  H        35.6836242388       24.1475201261       11.1483062872
  H        34.6621478983       22.2775786092        9.8367149093
  H        33.6757293241       23.5757008740       14.7411290621
  H        25.7308160350        8.6013436923       11.3939183467
  H        30.9595828783       22.6676577682        3.8846454453
  H        31.9724191955       24.5496974365        2.5957769277
  H        35.5981717714       24.1451619164        4.8757472941
  H        34.5606721227       22.2801010471        6.1775313784
  H        33.6635979927       23.5568928038        1.1922708893
  H        40.6077330621       17.0761564739        4.6480009857
  H        32.5165200703       14.1484395231        8.2456437211
  H        29.8943547046       12.4896350138        3.9207446559
  H        28.8536612381       10.5912737293        2.6770556053
  H        25.1839173340       11.1990149908        4.8355311672
  H        26.2441312156       13.0868031525        6.0866713659
  H        27.1593377412       11.6842389850        1.2424382161
  H        33.2977038360       14.1878655661        6.4416472896
  H        33.4035126960       14.3889495377        9.6125550260
  H        32.1096788477       18.5104200261        5.0838363924
  H        30.2368143900       14.1853815829        8.0850291957
  H        16.1186495851        2.9632446113       12.1301367173
  H        14.9534759776        4.8202935497       13.3228749495
  H        17.3654329770        7.6859437152       11.2094978349
  H        18.5141691857        5.8183917970       10.0096705679
  H        16.7536872757        5.7396633847       14.7715039459
  H        44.8281157278       32.1402532870       11.9769952214
  H        45.9374437056       30.3413759105       13.3063687118
  H        43.6824383024       27.3781524297       11.1524286563
  H        42.5996776690       29.1899540260        9.8098703787
  H        44.2304729846       29.4367848830       14.7688425690
  H        14.8508013441        8.5461221054       11.3633417051
  H        44.8998811448       32.2340048739        3.9317535414
  H        46.0247071008       30.4129383568        2.6522373109
  H        43.7634298211       27.4840352880        4.8453498873
  H        42.6456993196       29.3176923300        6.1244291507
  H        44.2685404331       29.4705304621        1.2181038725
  H        35.0765091413       26.6215739771        4.6170527315
  H        36.6049708746       35.1339570000        8.1806852540
  H        16.1438309177        3.0128560615        3.9037141858
  H        14.9743220829        4.8562659182        2.6880141995
  H        17.3956523230        7.7471481280        4.7556279098
  H        18.5426372244        5.8931432696        5.9832684562
  H        16.7648488995        5.7556012536        1.2192446081
  H        36.2781880705       34.4824149593        6.2731782105
  H        36.3804625621       34.2094269077        9.4999016436
  H        40.5803293283       33.2022625689        5.1534252763
  H        17.4707387541        1.9469935894        7.9740877369
  H        29.1986605599       19.5831399670       12.4520978171
  H        28.9112669648       18.8786911104        3.6491007750
  H        30.4716040311       15.6993478131        3.7914959701
  H        30.9249679369       15.6017441876       12.3538726857
  H        27.8939904913       17.8897395003       14.3406734053
  H        29.1624202644       15.7798635937       14.5915173140
  H        31.3041517492       19.4722466084        1.2080666594
  H        32.2134166764       16.1814285281        1.8280597172
  H        33.0253723506       17.7118065661       14.4891696605
  H        18.8531390745        0.8687754041       12.3353791306
  H        40.5280443041       35.2291408180        3.9521373648
  H        42.3238952759       34.4189568399        3.5905624319
  H        22.0877568583        0.6923701534       12.3515447013
  H        11.5970367346       18.7127355376       12.3823545714
  H        52.2648882166       18.4310824107        3.6776333365
  H        49.2548252651       16.4771586464        3.5847910262
  H        10.1498930548       15.7982611175       12.2929570529
  H        50.8499196690       17.6924829420        3.9542449302
  H        10.0458184904       17.3945538692       12.0519997197
  H        20.2142833326        0.0020896388       12.0420826712
  H        39.1835334229       36.1243215061        3.6865409532
 Ni        30.8172765621       17.7945654203        2.7491576437
 Ni        30.9462449184       16.6430743085       -0.1673385286
 Ni        29.6732272824       18.5511519459       -0.1613821674
 Ni        29.8908879669       17.4931502223       13.0737458035
  O        10.6499920550       14.3651011651        5.4858358044
  O        12.6132200985       14.6575618840        6.5839265316
  O        49.1478102767       16.8460016370        7.9898581480
  O        50.3500895180       20.9360697125        5.6482342108
  O        48.3484536121       20.5932619677        6.6660164133
  O        11.0517026936       17.0538334141        6.5006462704
  O        50.3209516645       20.8816681261       10.4068211165
  O        48.3466971896       20.5867167126        9.3271227814
  O        49.5434600525       18.2484212447       10.0682875307
  O        12.3589209639       18.6245792814        7.9997587902
  O        48.6932391646       14.1485766575        6.7512967699
  O         8.2098659972       14.2104462545        9.3225723774
  O        10.7353458830       14.5067442849       10.6643525730
  O        12.5718240159       14.5828419890        9.3284961164
  O        22.8442763806        2.0427787389        5.4871852400
  O        21.6048961769        3.5919446146        6.5899654110
  O        42.0580579029       34.1371935722        7.9790779841
  O        37.9816461677       33.1364527367        5.5721134155
  O        39.2176696761       31.5752811673        6.6659406912
  O        20.3082258762        1.0393281269        6.5020339830
  O        38.0247684299       33.1862632910       10.4147843372
  O        39.2191101973       31.5838051791        9.3263056056
  O        40.6522732019       33.7692933982       10.0602002409
  O        18.2554568195        1.3758638442        7.9967800654
  O        44.6222031773       35.1005585728        6.7587725369
  O        24.2054050898        0.0000035039        9.3208387548
  O        22.7531727379        2.0579999421       10.5838422990
  O        21.6246196615        3.5962522720        9.3427882779
  O        27.5339612276       18.6833107886        5.4141336075
  O        26.7639887769       16.9315067601        6.6453053376
  O        30.6681456785       19.4034102679        7.9939711357
  O        33.5841987143       16.2762230238        5.6576205646
  O        34.2796391024       18.1655091669        6.7233169265
  O        29.5996081984       17.0274960728        6.5762411541
  O        33.5484138939       16.3423873371       10.4145594800
  O        34.2998010586       18.2392453156        9.4024347478
  O        31.6525087509       18.3207336625       10.0806486362
  O        30.3252091733       15.1527490837        8.0755442875
  O        28.5561375878       21.0303759220        6.8207963160
  O        28.5102112925       20.9570880690        9.3984598768
  O        27.4629751268       18.6801520183       10.6529298873
  O        26.6964131179       16.9299329996        9.4079898089
  O        13.1490997840       18.6930114214       10.5874176610
  O        13.9196961918       16.9162408987        9.4051534508
  O        50.5957912037       19.3501604256        8.0207223638
  O        47.6826029413       16.3270255000       10.4171008322
  O        46.9502192135       18.1755485655        9.3255042372
  O        11.0695977168       17.0155953450        9.4896438040
  O        47.6764876657       16.3356881799        5.6530498980
  O        46.9260623334       18.2356280117        6.6636240445
  O        49.5685228416       18.3177284922        5.9823903608
  O        10.3185375866       15.1002497541        7.9971320439
  O        52.6707641077       21.0279034174        9.2418470673
  O        12.1467960916       20.8911745314        6.6732452425
  O        13.1074958978       18.6138498377        5.3256623980
  O        13.9575541582       16.9872856918        6.6651030197
  O        29.9705689933       14.5048143555       10.7370058042
  O        28.0834269601       14.6568118612        9.4849528530
  O        32.1302087128       16.8606507120        8.0225499258
  O        30.9594210192       20.9594597057       10.3312263316
  O        32.9587727222       20.5934397345        9.3257810795
  O        29.5598195103       17.0839241192        9.5597359543
  O        30.9054692285       20.8788796513        5.5804160241
  O        32.8803119294       20.5874232700        6.6612540024
  O        31.6862649007       18.2464417974        5.9190891977
  O        28.2901328475       18.6747788275        8.0062826840
  O        32.4888708285       14.2136126051        9.3254786826
  O        32.4035314341       14.2136996019        6.8211780789
  O        29.9073609139       14.4452334862        5.4174152329
  O        28.0514302657       14.5817947850        6.7386976327
  O        17.8892073659        1.9666198743       10.6628302600
  O        18.9562210952        3.5271237881        9.4079963359
  O        39.1686476600       34.1386931532        7.9971711167
  O        43.2801902589       33.0589560991       10.3316768378
  O        42.0344700400       31.5064713950        9.2416001301
  O        20.3176501753        1.0366083675        9.4803027741
  O        43.2760731983       33.1825710901        5.5749034665
  O        42.0052850208       31.5841014773        6.5829746867
  O        40.5788903853       33.7747454339        5.9356945117
  O        22.3672022947        1.3845091631        7.9980498690
  O        36.6727156259       35.0998432622        9.2332583829
  O        16.4455197275        0.0640771782        6.6681980362
  O        17.9364170307        2.0432085248        5.3264045243
  O        18.9189375636        3.5930570445        6.6659506345
  O        29.7845441420       18.7529715434        4.0618717677
  O        29.8633756800       19.0491425013       11.9770944386
  O        31.1806303640       16.3388458072        3.9989764485
  O        31.1869086359       16.4793901300       12.0054966626
  O        31.8892584564       17.0058541011        1.4148052842
  O        30.0631730556       16.0382871370       14.3222275737
  O        32.8699770582       16.7673253123       14.3267376941
  O        30.4154175782       19.1253882916        1.4191009203
  O        28.7222399356       18.3967216493       14.2546073903
  O        39.4568429844       35.2436967240        4.0019462576
  O        19.1411011311        0.0043545255       11.9905822541
  O        41.9696855851       35.1728993178        4.0872230015
  O        21.6914137241       -0.0690990126       11.8959368132
  O        51.3650034546       18.6143162978        4.0054809119
  O        10.7511707155       18.7471648076       11.9049424978
  O        50.0794451889       16.4128054840        4.0917550329
  O         9.5241688006       16.4831323056       11.9912071789
 Zr         9.2965304214       16.0527725971        6.1824097233
 Zr        49.8359787948       16.0068876957        9.7465833453
 Zr        22.0730887252        0.0294007616        6.1892998453
 Zr        42.4608866976       35.1531896606        9.8011244084
 Zr        29.6209411858       19.0559239828        6.2112984163
 Zr        29.5793548850       19.1919294082        9.8016521136
 Zr        11.0377078694       19.0520074837        9.8278054493
 Zr        11.0434155271       19.1548692428        6.2513380053
 Zr        31.3508591745       16.1222241825        9.8208220456
 Zr        31.4010921259       16.0115037438        6.2298400094
 Zr        18.6010834625       -0.0015363695        9.7633672916
 Zr        18.5062449603       -0.0083414399        6.2136085742
 Zr        12.3018378918       16.3236577951        7.9903388367
 Zr        48.6155407538       18.8328769261        8.0105245509
 Zr        20.3148313669        2.4729834323        7.9908075077
 Zr        40.6432409619       32.6866230579        7.9780857698
 Zr        28.3480247188       16.3401932485        8.0708184589
 Zr        32.6328655725       18.8465599145        8.0152927987
  H        32.4149014286       16.7370089993       13.4455641907
