     566
 i =      190, E =     -4712.2136343992
  C        11.8588529796       14.0535127145        5.7416134929
  C        12.4563468290       12.8905142065        5.0235788818
  C        11.7050003007       12.1721871127        4.0811521302
  C        12.2814601148       11.1100778545        3.3887472544
  C        13.6218024290       10.7397287159        3.6170918563
  C        14.3545073762       11.4425825822        4.5914547116
  C        13.7815632051       12.5074719149        5.2830469687
  C        14.2614686669        9.6492174835        2.8436025564
  C        14.2567846685        9.6572173504        1.4218899714
  C        13.7437300875       10.7593825710        0.6679622460
  C        49.1268077445       21.2331256886        5.8796676270
  C        48.5501591310       22.4011167609        5.1526848621
  C        49.3000939670       23.0682300754        4.1714624529
  C        48.7331844267       24.1073905333        3.4382881661
  C        47.4027452484       24.5093049060        3.6671043299
  C        46.6719392652       23.8606713592        4.6808928716
  C        47.2343447077       22.8157339693        5.4102286973
  C        46.7725166190       25.5870136872        2.8698298236
  C        46.7614459629       25.5573456026        1.4480642720
  C        47.2612489988       24.4422038849        0.7045539224
  C        14.8607830393        8.5709362956        0.7085784371
  C        14.8923548590        8.5972701657        3.5201954356
  C        49.1130907973       21.2034599448       10.1453547685
  C        48.5277165721       22.3647550311       10.8724915920
  C        49.2669140888       23.0254460528       11.8654594417
  C        48.6905640648       24.0599708862       12.5969254766
  C        47.3601634378       24.4568035291       12.3586517275
  C        46.6397833366       23.8118930174       11.3350965894
  C        47.2133408115       22.7760026683       10.6032975619
  C        46.7217175003       25.5317554494       13.1497053417
  C        46.7335277279       25.5281183325       14.5714098534
  C        47.2489112056       24.4288810796       15.3277923632
  C        40.6200384364       17.0910107289       15.3207119392
  C        40.6335730164       17.1192357431       12.5106577987
  C        11.8829524885       14.0865661960       10.2853932049
  C        12.4722562495       12.9107281738       10.9894477255
  C        11.7150945807       12.1781026552       11.9163298664
  C        12.2817493340       11.0957141869       12.5847747939
  C        13.6203088575       10.7213920430       12.3522678107
  C        14.3578037724       11.4362300003       11.3905260302
  C        13.7923165787       12.5173308447       10.7177912224
  C        14.2540554437        9.6247858496       13.1227365130
  C        14.2528726905        9.6448572691       14.5445851843
  C        13.7431507512       10.7538499599       15.2917042347
  C        22.5122564459        3.2461150839        5.7525847844
  C        23.2248026221        4.3538391697        5.0539180703
  C        24.2223478925        4.0791459403        4.1065468403
  C        24.8462395582        5.1220833048        3.4262533016
  C        24.4887152558        6.4629741292        3.6720067008
  C        23.5195609148        6.7290275315        4.6566341993
  C        22.8912742666        5.6881015446        5.3355739379
  C        25.0896441349        7.5733393925        2.8968762036
  C        25.0629018468        7.5662339758        1.4750189998
  C        24.3660215014        6.5635697323        0.7285091579
  C        38.2977980136       31.9270974320        5.8513959103
  C        37.5558839449       30.8373023266        5.1500066119
  C        36.5889077893       31.1429342849        4.1795604203
  C        35.9583150606       30.1245467259        3.4692572565
  C        36.2786699289       28.7728314841        3.7048656877
  C        37.2149767154       28.4746198283        4.7131723940
  C        37.8493627764       29.4920543871        5.4231623469
  C        35.6690381548       27.6844921953        2.9040065071
  C        35.7096910783       27.7016420294        1.4818618054
  C        36.4229870646       28.7037932057        0.7510239483
  C        25.6810951842        8.6391266207        0.7550686144
  C        25.6819518232        8.6512128081        3.5674792610
  C        38.3314932904       31.9621004716       10.1600417674
  C        37.6160004003       30.8894878547       10.9101221333
  C        36.6831972086       31.1994196384       11.9117595122
  C        36.0742968949       30.1824657192       12.6449522168
  C        36.3836687078       28.8293953409       12.4004943463
  C        37.2978357243       28.5293417496       11.3718595448
  C        37.9083962107       29.5427766571       10.6397558937
  C        35.7686544902       27.7306933458       13.1807806264
  C        35.7608664869       27.7252740505       14.6031098523
  C        36.4460129543       28.7158858297       15.3744214206
  C        46.1355860933       26.6207832466       15.2815564513
  C        46.0877379116       26.5801128680       12.4736568819
  C        22.4622325909        3.2574198485       10.2592919273
  C        23.1571198402        4.3666833368       10.9822753595
  C        24.1561369262        4.0820099182       11.9271805229
  C        24.7843186875        5.1127762795       12.6228623672
  C        24.4349699300        6.4596038729       12.3971671152
  C        23.4592758934        6.7372299545       11.4205918651
  C        22.8262175630        5.7068565836       10.7256039955
  C        25.0641279489        7.5599660625       13.1716957521
  C        25.0504134981        7.5585202408       14.5949584938
  C        24.3575875202        6.5613178888       15.3515266372
  C        26.6629921946       17.8710141535        5.7353567728
  C        25.3621617674       17.9616761835        5.0083250145
  C        25.1032370742       18.9706292457        4.0668535259
  C        23.8786350771       19.0151505741        3.4000993286
  C        22.8762951099       18.0549975118        3.6509522509
  C        23.1324919647       17.0702692469        4.6241329816
  C        24.3551652956       17.0209902458        5.2888458903
  C        21.5956075633       18.0485680420        2.8973400540
  C        21.5902759299       18.0167629851        1.4750590429
  C        22.7931255013       17.8815403213        0.7124565042
  C        34.4475629127       17.1865770537        5.9530819893
  C        35.7360660156       17.1275391500        5.2048878903
  C        35.9354665845       16.1548006367        4.2124122032
  C        37.1102998061       16.1410700319        3.4651646154
  C        38.1205904816       17.0962380737        3.6919943027
  C        37.9248589622       18.0479939847        4.7113523719
  C        36.7463097798       18.0693990787        5.4535682147
  C        39.3722360168       17.1023432816        2.8994556152
  C        39.3655425051       17.1104721168        1.4772448357
  C        38.1574709739       17.2290034983        0.7208076730
  C        20.3406295484       18.0248301292        0.7713668773
  C        20.3728519559       18.0444016417        3.5853224212
  C        34.4279258530       17.2081847442       10.2271769735
  C        35.7339852477       17.1293198040       10.9384685053
  C        35.9475017062       16.1560940289       11.9263639325
  C        37.1428893402       16.1313583978       12.6389523849
  C        38.1521683160       17.0815372389       12.3872395981
  C        37.9441641359       18.0282832434       11.3665304975
  C        36.7486551331       18.0560833427       10.6535844237
  C        39.4029830291       17.1021632985       13.1775863840
  C        39.3816905613       17.1130456883       14.5994039679
  C        38.1652789528       17.2298671219       15.3438635074
  C        35.1208734713       26.6471520603       15.3003379515
  C        35.1861231506       26.6595314711       12.4912131577
  C        26.5886426640       17.7993646470       10.3578404560
  C        25.2683964232       17.8603194371       11.0520308277
  C        25.0038064712       18.8806205779       11.9783550061
  C        23.7798686349       18.9261597607       12.6396929203
  C        22.7923854001       17.9487589080       12.4029603157
  C        23.0515157232       16.9534026387       11.4432584386
  C        24.2745855126       16.9085668460       10.7761267065
  C        21.5280258472       17.9454666845       13.1758200791
  C        21.5553076637       17.9601032654       14.5975208592
  C        22.7758970650       17.8527472047       15.3367032514
  C        14.0467272379       17.8297116893       10.2898994465
  C        15.3498997704       17.8915309931       11.0184113869
  C        15.6056975310       18.9077424803       11.9525790367
  C        16.8134944076       18.9384856764       12.6472993811
  C        17.8004416869       17.9554762798       12.4311237393
  C        17.5483398073       16.9611491028       11.4667224765
  C        16.3402036140       16.9266265358       10.7725630751
  C        19.0712143380       17.9529844624       13.1987415255
  C        19.0740956212       17.9748503279       14.6215191082
  C        17.8698129592       17.8875886900       15.3884551821
  C        46.8023321135       17.2178125195       10.1590462927
  C        45.5104763983       17.1516412490       10.9036381692
  C        45.3055742657       16.1707117420       11.8866565849
  C        44.1228934413       16.1461873315       12.6216234356
  C        43.1131610460       17.1026706742       12.3971487550
  C        43.3152194893       18.0630911353       11.3871583980
  C        44.4987095605       18.0914051202       10.6528201734
  C        41.8593219930       17.1079345257       13.1871961835
  C        41.8660655890       17.1059431348       14.6097425456
  C        43.0755108746       17.2015220841       15.3674858727
  C        20.3229027130       17.9975587806       15.3261052670
  C        20.2938457888       17.9223770038       12.5133713053
  C        46.7846524590       17.2307904135        5.8887339898
  C        45.4813815790       17.1227766558        5.1731846320
  C        45.2633865579       16.1213849849        4.2146610686
  C        44.0750031290       16.0908416786        3.4890153461
  C        43.0746014245       17.0585917096        3.7046135510
  C        43.2832180006       18.0301310327        4.7014025965
  C        44.4727168606       18.0670020758        5.4222422757
  C        41.8272143082       17.0764828992        2.9088245898
  C        41.8497786748       17.0878706232        1.4876166725
  C        43.0678506202       17.1903249001        0.7443788549
  C        46.1534408348       26.6372396824        0.7263206081
  C        46.1626199302       26.6561776107        3.5359613704
  C        14.0503789840       17.8384475382        5.7114124416
  C        15.3764792169       17.9328036428        5.0279890472
  C        15.6448338516       18.9661173415        4.1170507945
  C        16.8754221655       19.0267451948        3.4657585706
  C        17.8685033697       18.0534835999        3.6973220359
  C        17.6069561291       17.0485564764        4.6470884789
  C        16.3782732472       16.9879537870        5.3030862215
  C        19.1364115143       18.0496153146        2.9240120704
  C        19.1080240903       18.0241912200        1.5015506990
  C        17.8861798276       17.9093299347        0.7646794755
  C        28.7940867286       14.1143831427       10.3991371256
  C        28.1918433466       12.9369806706       11.0852957563
  C        28.9059547883       12.2151190230       12.0529996653
  C        28.3094139023       11.1366466347       12.7016015149
  C        26.9836607124       10.7562891735       12.4089306982
  C        26.2931269105       11.4578273270       11.4040768628
  C        26.8874583343       12.5353338012       10.7529981572
  C        26.3123914339        9.6768010516       13.1693383186
  C        26.2876818267        9.7100808279       14.5906688948
  C        26.7745016444       10.8309784761       15.3355648353
  C        32.1711933205       21.2699992669       10.1035980556
  C        32.7743016600       22.4292088519       10.8295378701
  C        32.0235519904       23.1092089502       11.8013530879
  C        32.5959743166       24.1385411933       12.5426002603
  C        33.9357314885       24.5187466919       12.3333015383
  C        34.6706025294       23.8569315828       11.3312116971
  C        34.1007293242       22.8202106738       10.5932378089
  C        34.5616186468       25.5903519329       13.1430786198
  C        34.5365875122       25.5636257342       14.5650950257
  C        34.0175443657       24.4498241824       15.2976629023
  C        25.6802452395        8.6308336473       15.3096752792
  C        25.6828070931        8.6209685648       12.4960103188
  C        32.0951707106       21.1594996546        5.8327637486
  C        32.6531051029       22.3283298777        5.0928069107
  C        31.9145841446       22.9933430448        4.1014649692
  C        32.4835467104       24.0447280459        3.3845561351
  C        33.8055677236       24.4624550203        3.6382772979
  C        34.5238985410       23.8134677146        4.6611680955
  C        33.9602322405       22.7596497506        5.3740514399
  C        34.4451973605       25.5534621023        2.8650554749
  C        34.4746809118       25.5458011550        1.4427349637
  C        33.9870576238       24.4419027449        0.6743207056
  C        40.6112661037       17.0856731922        0.7659373000
  C        40.5975025301       17.1020185882        3.5760964624
  C        28.7206273906       14.0978205913        5.8189575536
  C        28.1053330507       12.9506675042        5.0890581083
  C        28.8291744525       12.2771518019        4.0924409298
  C        28.2489348326       11.2208789472        3.3950512039
  C        26.9275087353       10.8104308221        3.6653003387
  C        26.2219213017       11.4715001074        4.6890607953
  C        26.8005448777       12.5284787537        5.3899139154
  C        26.2873607287        9.7190659623        2.8910621327
  C        26.2760895080        9.7321104208        1.4681856178
  C        26.7662194592       10.8429163569        0.7117501148
  C        18.1355808630        3.1810001826       10.3171833175
  C        17.4064166206        4.2783205062       11.0158954005
  C        16.3901329077        4.0000994805       11.9428253845
  C        15.7424874833        5.0401660391       12.6062880060
  C        16.0950416543        6.3837946909       12.3670828249
  C        17.0851448163        6.6532003061       11.4040501507
  C        17.7341767335        5.6157681226       10.7390536566
  C        15.4706550426        7.4915398787       13.1300750466
  C        15.4859654584        7.4909183247       14.5517857593
  C        16.1875717976        6.4973089159       15.3049106313
  C        42.9457630553       31.8596128411       10.0728332292
  C        43.6461256128       30.7718402875       10.8168247872
  C        44.5916658850       31.0931681176       11.8028681857
  C        45.1973793387       30.0876303386       12.5505592322
  C        44.8709496403       28.7345660354       12.3357404249
  C        43.9451062375       28.4202089100       11.3225455573
  C        43.3363153696       29.4253538832       10.5744661806
  C        45.4885680936       27.6552625142       13.1389339733
  C        45.4928505973       27.6809019301       14.5606374362
  C        44.8058792497       28.6890087299       15.3072829016
  C        14.8569549446        8.5633926248       15.2641413643
  C        14.8752954380        8.5632288969       12.4514623005
  C        42.9464761273       31.9617774842        5.8089612855
  C        43.6917881745       30.8855690048        5.0955138109
  C        44.6564464153       31.1914938732        4.1232956006
  C        45.2780431970       30.1719147995        3.4055964285
  C        44.9542536459       28.8215983835        3.6431844395
  C        44.0206935502       28.5239071314        4.6538821886
  C        43.3923733563       29.5406730956        5.3660331771
  C        45.5633047160       27.7241795649        2.8579294942
  C        45.5335368969       27.7174304084        1.4366249661
  C        44.8272478550       28.7076856185        0.6836735829
  C        35.0920254210       26.6371407669        0.7457973166
  C        35.0544750655       26.6089909099        3.5566294965
  C        18.1488747190        3.2470844968        5.7066316322
  C        17.4305430962        4.3440164164        4.9971153369
  C        16.4149308267        4.0528626736        4.0739607229
  C        15.7667190922        5.0835595862        3.3985630339
  C        16.1218751887        6.4287127706        3.6209328548
  C        17.1138335632        6.7119916167        4.5776006513
  C        17.7614216240        5.6830077438        5.2573685797
  C        15.4912823688        7.5244403095        2.8485568547
  C        15.4970984694        7.5078589095        1.4274214719
  C        16.1938679166        6.5061622531        0.6807236347
  H        10.6730746651       12.4666921232        3.9035742404
  H        11.6954137834       10.5520696664        2.6616499396
  H        15.3913062323       11.1675096847        4.7738009988
  H        14.3507788935       13.0701179752        6.0191129375
  H        13.3768391830       11.6315792551        1.2012323407
  H        50.3226996812       22.7480028942        3.9865091196
  H        49.3195805825       24.6224785708        2.6805243679
  H        45.6425461372       24.1616522951        4.8642787019
  H        46.6633738076       22.2907026087        6.1724987277
  H        47.6296764888       23.5757644221        1.2462095153
  H        14.8727635322        8.5884338905        4.6085022812
  H        50.2869475136       22.7025923387       12.0603992220
  H        49.2689217757       24.5754212527       13.3604555190
  H        45.6103876802       24.1091502350       11.1460053319
  H        46.6524844401       22.2538708605        9.8317391342
  H        47.6075394353       23.5516906286       14.7969118908
  H        40.6377866581       17.0869813779       11.4227732333
  H        48.6870569637       14.0948806556        7.7999847992
  H        10.6818227483       12.4675334324       12.0943024111
  H        11.6901977051       10.5257625535       13.2980239930
  H        15.3929761790       11.1578278149       11.2039083919
  H        14.3643634780       13.0860685241        9.9885401474
  H        13.3764375904       11.6225395145       14.7531164445
  H        47.9300991034       14.2183455551        9.7108950178
  H        47.7799784545       14.3733613926        6.4952202094
  H        49.0831547305       18.5520313149       10.8672122000
  H        10.4161411856       14.1344065083        7.9987339353
  H        24.4869197722        3.0418879241        3.9133186380
  H        25.6198080636        4.9077851805        2.6920156059
  H        23.2353518234        7.7606436717        4.8536721862
  H        22.1210347029        5.8854796162        6.0771230538
  H        23.8063665381        5.8053922436        1.2684373841
  H        36.3560385749       32.1868502614        3.9830133964
  H        35.2099291684       30.3681373815        2.7182691477
  H        37.4718175966       27.4347580695        4.9047202518
  H        38.5974963229       29.2666349442        6.1796041406
  H        36.9834384508       29.4531953286        1.3022051947
  H        25.7190717792        8.6324543948        4.6552280402
  H        36.4546680712       32.2437578126       12.1122067595
  H        35.3438850326       30.4292316098       13.4123230950
  H        37.5503355617       27.4891338610       11.1770017812
  H        38.6348300158       29.3153484327        9.8633666476
  H        37.0251308135       29.4742796509       14.8552877829
  H        46.1090800070       26.5875094310       11.3856178459
  H        44.6684112487       35.1163086943        7.8138788987
  H        24.4317255823        3.0438537889       12.0984878485
  H        25.5621830548        4.8830507178       13.3479543936
  H        23.1768748376        7.7717229924       11.2358908604
  H        22.0574392020        5.9206686840        9.9866038273
  H        23.7908074525        5.8020946566       14.8204375960
  H        44.9542014734       34.3908068926        9.6955094770
  H        44.9017928176       34.2069130983        6.4905513894
  H        40.6666652652       33.2096784300       10.8532872443
  H        23.1504131581        1.9585854888        8.0053692255
  H        25.8658861744       19.7218590140        3.8741379099
  H        23.6845319667       19.8036487546        2.6760585246
  H        22.3730865174       16.3179780280        4.8273404312
  H        24.5602345950       16.2461503647        6.0235258430
  H        23.7361325970       17.7636067073        1.2382474062
  H        35.1537748435       15.4204448527        4.0328258637
  H        37.2609831498       15.3801706849        2.7024475357
  H        38.6962464516       18.7937562797        4.8921205461
  H        36.5799100641       18.8206779849        6.2221036637
  H        37.2180309540       17.3524205758        1.2521106337
  H        20.3835076048       18.0836309556        4.6732649063
  H        35.1579374600       15.4377043781       12.1340311686
  H        37.3070895828       15.3728063781       13.4010725626
  H        38.7161872668       18.7685333387       11.1669753240
  H        36.5684434531       18.8049461842        9.8859894862
  H        37.2315515267       17.3543338717       14.8030436550
  H        35.1715015646       26.6853334709       11.4032786539
  H        28.5071992741       21.0825050794        8.0125542531
  H        25.7700753850       19.6307503795       12.1608186566
  H        23.5745075313       19.7224241999       13.3518789726
  H        22.2984342110       16.1909311546       11.2548361555
  H        24.4893528832       16.1281318682       10.0499757699
  H        23.7053123007       17.7128998580       14.7928252918
  H        29.0153566352       21.7111231543        9.7499507750
  H        29.0985123522       21.7798581958        6.6168404676
  H        32.0576149327       18.5575402042       11.0089409473
  H        27.3972699897       19.0771751440        8.0669463553
  H        14.8476043158       19.6699909243       12.1180634566
  H        17.0078685785       19.7343155801       13.3631497368
  H        18.2989111818       16.1931396895       11.2912091418
  H        16.1356526112       16.1466301622       10.0428996815
  H        16.9251794182       17.7681249444       14.8657451543
  H        46.0904585611       15.4402361572       12.0682942645
  H        43.9667342921       15.3770694459       13.3748983232
  H        42.5449154602       18.8103562810       11.2079482344
  H        44.6688547101       18.8479054961        9.8902339872
  H        44.0166599646       17.3160409088       14.8373005357
  H        20.2842179373       17.9327164746       11.4248897654
  H        46.0409542485       15.3813139519        4.0397208782
  H        43.9090510902       15.3135050438        2.7463060160
  H        42.5160921515       18.7820273050        4.8744324366
  H        44.6545055618       18.8360260408        6.1690083890
  H        44.0032281860       17.2952544071        1.2863904807
  H        46.1995038318       26.6827761475        4.6234051474
  H        52.7408847425       21.0626046384        8.1946516578
  H        14.8780664540       19.7159442951        3.9349470109
  H        17.0787117306       19.8313589695        2.7622253891
  H        18.3629434298       16.2888719383        4.8351654958
  H        16.1645455925       16.1984266247        6.0196938108
  H        16.9540169464       17.8065682504        1.3120108441
  H        52.3213563989       21.6728855563        6.2947080648
  H        52.0127581387       21.7016203952        9.4957257718
  H        49.0672973524       18.6074529947        5.2041040524
  H        13.2473409686       19.0171406585        7.9781647655
  H        29.9255445497       12.5138100687       12.2854393015
  H        28.8654917890       10.5774513968       13.4508418785
  H        25.2690008320       11.1751485688       11.1693068681
  H        26.3495712046       13.0978180431        9.9939711465
  H        27.1285839673       11.7046467903       14.7964455927
  H        30.9946133815       22.8027133408       11.9728068052
  H        32.0072892012       24.6626382414       13.2923414624
  H        35.7079772767       24.1393681992       11.1635275134
  H        34.6757117411       22.2837132835        9.8419014192
  H        33.6680321024       23.5805031268       14.7477351915
  H        25.7203270266        8.5973857763       11.4082872713
  H        30.8955644443       22.6722026062        3.8988272093
  H        31.9029194631       24.5591193328        2.6218749873
  H        35.5465567231       24.1234015938        4.8659523197
  H        34.5226552682       22.2396374327        6.1457533919
  H        33.6151611806       23.5649453619        1.1963794462
  H        40.5930870031       17.0680891929        4.6639061003
  H        32.4988484024       14.1576339819        8.2583454109
  H        29.8459616644       12.5990105919        3.8793469389
  H        28.8198768717       10.6966731085        2.6318543293
  H        25.1998597773       11.1684768149        4.9070755380
  H        26.2497592889       13.0524883414        6.1675052196
  H        27.1124364510       11.7261499084        1.2406834611
  H        33.3068068780       14.2259251156        6.4711290032
  H        33.4060020828       14.3872810007        9.6057860025
  H        32.1248545653       18.4644416094        5.1475194246
  H        30.1996256198       14.1923180876        8.0793709946
  H        16.1176281358        2.9636404927       12.1288327969
  H        14.9526388245        4.8209239372       13.3215528682
  H        17.3682940306        7.6859890497       11.2115316309
  H        18.5168762111        5.8183074150       10.0118843049
  H        16.7541669930        5.7400294460       14.7713589394
  H        44.8279609666       32.1402556456       11.9770199654
  H        45.9372780569       30.3414358871       13.3064549650
  H        43.6824050132       27.3781370590       11.1524431350
  H        42.5997686434       29.1900222993        9.8097293613
  H        44.2305973150       29.4368354270       14.7689829391
  H        14.8515502887        8.5463844509       11.3632432822
  H        44.9000077822       32.2341802451        3.9318860349
  H        46.0249972047       30.4132028596        2.6524243724
  H        43.7637158548       27.4841744592        4.8454149143
  H        42.6458383021       29.3178884022        6.1244503588
  H        44.2688798200       29.4706641874        1.2182715359
  H        35.0060349744       26.6177841831        4.6439857422
  H        36.6054504355       35.1340594464        8.1807189155
  H        16.1434914658        3.0133269459        3.9045591199
  H        14.9741058957        4.8568350864        2.6887609958
  H        17.3979454704        7.7473756361        4.7540009375
  H        18.5448012482        5.8933655511        5.9816187158
  H        16.7654019707        5.7560046884        1.2191767742
  H        36.2795443364       34.4818173370        6.2731264102
  H        36.3819498922       34.2086876512        9.4993086370
  H        40.5792662642       33.2022660083        5.1536609222
  H        17.4714296746        1.9473844199        7.9740916834
  H        29.3063738518       19.6089247944       12.5805944721
  H        28.6956450810       18.1942091666        3.8322036159
  H        32.0459652650       15.7059054784        3.6070170606
  H        31.2780781692       15.6320523587       12.5584424644
  H        28.0888369296       18.1292786806       14.3199469658
  H        32.6091780818       16.8431115687        1.0490911251
  H        18.8546662464        0.8693218433       12.3354659292
  H        40.5281276947       35.2288457967        3.9519562425
  H        42.3248649185       34.4196537064        3.5900783251
  H        22.0878726758        0.6923886486       12.3512005998
  H        11.5968832635       18.7129140903       12.3823304131
  H        52.2648664452       18.4310202603        3.6770647048
  H        49.2557869493       16.4767098980        3.5842198657
  H        10.1497839977       15.7981390053       12.2929518719
  H        50.8500358229       17.6922416250        3.9543015881
  H        10.0458956560       17.3944862424       12.0520428006
  H        20.2162355488        0.0025703295       12.0417582577
  H        39.1839204508       36.1245426448        3.6865271370
 Ni        30.6076136971       17.0810339418        2.2531014769
 Ni        31.1526922068       15.8432710071       -0.3334723153
 Ni        29.8858806818       17.5955046875       -0.2528876854
 Ni        30.0981887333       17.5274495458       13.2454171445
  O        10.6500535355       14.3651024327        5.4859388219
  O        12.6132954738       14.6577376809        6.5839701781
  O        49.1478342933       16.8459392581        7.9897767998
  O        50.3503109724       20.9357083141        5.6481268954
  O        48.3485649662       20.5932634866        6.6659694502
  O        11.0517877084       17.0536904487        6.5008499888
  O        50.3209373671       20.8816208714       10.4067823530
  O        48.3467115423       20.5866905801        9.3270929321
  O        49.5435753860       18.2483478774       10.0682057227
  O        12.3593203928       18.6243599597        7.9995386835
  O        48.6932624008       14.1485958211        6.7513045109
  O         8.2098419387       14.2104947892        9.3225944281
  O        10.7353411085       14.5067877764       10.6642741850
  O        12.5718324479       14.5830465027        9.3283926479
  O        22.8448673785        2.0445893075        5.4868420768
  O        21.6056051144        3.5924880367        6.5899573343
  O        42.0581585873       34.1375091485        7.9788183833
  O        37.9813502649       33.1359422927        5.5719543243
  O        39.2170193469       31.5747552578        6.6654293971
  O        20.3085599853        1.0398434822        6.5022356355
  O        38.0250405122       33.1860201856       10.4154797813
  O        39.2188019916       31.5834606818        9.3270125584
  O        40.6523419148       33.7694155832       10.0600103607
  O        18.2559658685        1.3760094780        7.9967801801
  O        44.6221988111       35.1006113344        6.7587277085
  O        24.2054254924        0.0000323857        9.3207345743
  O        22.7532387265        2.0585252251       10.5844716400
  O        21.6252047285        3.5968724733        9.3442303367
  O        27.6238761461       18.6806250320        5.3988255440
  O        26.7361283296       17.0037039730        6.6594861798
  O        30.6666617831       19.4111373808        8.0787275632
  O        33.5917243535       16.2662042582        5.7391448740
  O        34.2754860564       18.1795976884        6.7441339578
  O        29.5749725124       17.0670152332        6.5703775197
  O        33.5438560618       16.3266209334       10.4927328015
  O        34.2722356557       18.1774679856        9.4081408960
  O        31.6496677197       18.3181026348       10.1580202474
  O        30.3142568498       15.1568673145        8.0854929933
  O        28.5540126992       21.0297948653        6.9124292267
  O        28.5080839594       20.9555241695        9.4054158322
  O        27.4963570567       18.6109937161       10.7348902442
  O        26.6945131311       16.9310683538        9.4144290391
  O        13.1481663128       18.6934917466       10.5871604729
  O        13.9206191055       16.9167104713        9.4063060815
  O        50.5959385784       19.3500905978        8.0202240305
  O        47.6820291174       16.3273355237       10.4175469343
  O        46.9501773278       18.1756608648        9.3256352736
  O        11.0700203190       17.0152189268        9.4894368675
  O        47.6759539563       16.3356933810        5.6530885791
  O        46.9262176962       18.2357419961        6.6639347489
  O        49.5686010829       18.3176603543        5.9823154060
  O        10.3187001115       15.1002677008        7.9970792974
  O        52.6707164932       21.0278552861        9.2418180860
  O        12.1468132097       20.8911450920        6.6731915056
  O        13.1090162957       18.6142819014        5.3255308720
  O        13.9598495646       16.9882371690        6.6630548569
  O        29.9637877634       14.5009468214       10.7411526442
  O        28.0809570938       14.6576273049        9.4866812198
  O        32.0727831489       16.8627140896        8.0805297886
  O        30.9408142502       21.0232421889       10.3236106991
  O        32.9500650315       20.5940830110        9.3352788114
  O        29.5633706939       17.0847641820        9.5757074667
  O        30.8755672178       20.8042749601        5.5706281769
  O        32.8644950859       20.5851973981        6.6635174569
  O        31.6708486233       18.2483622913        5.9793352486
  O        28.2832208044       18.6794580265        8.0820428132
  O        32.4872513107       14.2158839511        9.3317930905
  O        32.4005197256       14.2171197972        6.8219308318
  O        29.9053630276       14.4414816592        5.4959046620
  O        28.0070864911       14.6508639555        6.7372505184
  O        17.8891752058        1.9666238959       10.6627828504
  O        18.9562753527        3.5271451278        9.4079663133
  O        39.1685944053       34.1387170690        7.9970860314
  O        43.2801779028       33.0589250507       10.3317189183
  O        42.0344068815       31.5064531888        9.2415542153
  O        20.3179452692        1.0369934524        9.4800435900
  O        43.2760743469       33.1826392340        5.5748880967
  O        42.0052572869       31.5841345822        6.5829387070
  O        40.5789028660       33.7749514208        5.9357672887
  O        22.3675653869        1.3849399132        7.9979560100
  O        36.6728309239       35.0997446805        9.2333251486
  O        16.4457833251        0.0641454093        6.6681589775
  O        17.9365550508        2.0434857059        5.3263797257
  O        18.9191502698        3.5931509207        6.6660180200
  O        29.6107820374       18.4602439962        3.5696651084
  O        29.9075219991       19.1196895474       11.9890799882
  O        31.4256125150       16.3375775688        4.0130664327
  O        31.2494582603       16.4794648548       12.0785592163
  O        31.9882505063       16.1128835660        1.2512341597
  O        28.9740270893       18.5342466044       14.4040885329
  O        39.4568441180       35.2437970755        4.0019669934
  O        19.1425052624        0.0049659600       11.9904241387
  O        41.9695352296       35.1727513066        4.0871856216
  O        21.6914500969       -0.0692632897       11.8958704122
  O        51.3651777856       18.6142397712        4.0054765793
  O        10.7510546319       18.7471625172       11.9048393200
  O        50.0801060810       16.4128471997        4.0917258595
  O         9.5241514515       16.4831126406       11.9912115749
 Zr         9.2968310461       16.0526359892        6.1824373321
 Zr        49.8361421168       16.0066706110        9.7465293526
 Zr        22.0735592778        0.0308950023        6.1887297011
 Zr        42.4612907406       35.1542705501        9.8009214118
 Zr        29.6529228120       19.1062981578        6.4040484421
 Zr        29.5712516557       19.1729962006        9.9345371002
 Zr        11.0376592594       19.0516945585        9.8275254909
 Zr        11.0438033508       19.1545161422        6.2509324925
 Zr        31.3295887143       16.1054225853        9.9148360417
 Zr        31.3814358508       15.9992185861        6.2309231862
 Zr        18.6016700496       -0.0008105789        9.7634464288
 Zr        18.5070538082       -0.0074252450        6.2137170524
 Zr        12.3027979432       16.3235545713        7.9898828525
 Zr        48.6157811196       18.8329428591        8.0103795754
 Zr        20.3164375327        2.4746401493        7.9908879972
 Zr        40.6435479607       32.6874810235        7.9777763918
 Zr        28.3482553837       16.3420648614        8.0937239449
 Zr        32.6479327826       18.8033014272        8.0767160920
  H        29.4164444116       17.1370417619        1.1725710563
  H        29.4818330777       19.2183546503        2.9692609291
