     569
 i =      121, E =     -4729.5031454642
  C        11.8588990161       14.0534853647        5.7415795676
  C        12.4563909490       12.8906224509        5.0232893489
  C        11.7047058461       12.1716608340        4.0816326435
  C        12.2810989887       11.1094806089        3.3892796561
  C        13.6216884729       10.7397048564        3.6170187613
  C        14.3548599959       11.4433213345        4.5904535462
  C        13.7819594637       12.5082911187        5.2819592474
  C        14.2611745839        9.6490160670        2.8436228480
  C        14.2563860917        9.6569096269        1.4219252537
  C        13.7433137611       10.7590803029        0.6680227668
  C        49.1268098658       21.2332664569        5.8796903196
  C        48.5500600489       22.4011992739        5.1526680731
  C        49.3000157190       23.0683506634        4.1714873068
  C        48.7330975112       24.1074798405        3.4382684874
  C        47.4026295391       24.5093185965        3.6670204578
  C        46.6717919744       23.8606815301        4.6807883571
  C        47.2342350907       22.8157996936        5.4101701440
  C        46.7723680463       25.5869667291        2.8697070463
  C        46.7614117172       25.5573667608        1.4479418784
  C        47.2614862352       24.4423554704        0.7044193875
  C        14.8601927327        8.5705076072        0.7086489774
  C        14.8919547651        8.5970593434        3.5202631257
  C        49.1132635121       21.2034982860       10.1453371194
  C        48.5279914511       22.3649749317       10.8723168690
  C        49.2671036658       23.0253907640       11.8655300260
  C        48.6908178993       24.0599795363       12.5969693393
  C        47.3605494179       24.4571116888       12.3584710063
  C        46.6403385595       23.8125993349       11.3345361718
  C        47.2138418259       22.7766815609       10.6027414711
  C        46.7220363509       25.5319868982       13.1495565473
  C        46.7337174022       25.5282583790       14.5712667774
  C        47.2492614660       24.4290996145       15.3276571974
  C        40.6200047912       17.0816320227       15.3053121440
  C        40.6263545678       17.1143339918       12.4950593088
  C        11.8830510443       14.0865150537       10.2855244891
  C        12.4722799823       12.9107193017       10.9897232915
  C        11.7147917122       12.1776213401       11.9159549342
  C        12.2813492370       11.0951505201       12.5843527246
  C        13.6201250584       10.7212838455       12.3524387198
  C        14.3580586558       11.4367617332       11.3915345300
  C        13.7926822894       12.5179619603       10.7188552522
  C        14.2536714350        9.6245049894       13.1228494723
  C        14.2524176246        9.6445107307       14.5446871117
  C        13.7427165639       10.7535344321       15.2917679227
  C        22.5089317537        3.2428269469        5.7508088361
  C        23.2184992345        4.3459462561        5.0442230160
  C        24.2115880925        4.0622044455        4.0952045799
  C        24.8365194639        5.0992583967        3.4079064413
  C        24.4832305701        6.4414144417        3.6499262774
  C        23.5168483474        6.7166160427        4.6345418519
  C        22.8875358679        5.6814766791        5.3204489590
  C        25.0907495424        7.5471762367        2.8758321017
  C        25.0697721527        7.5428140353        1.4543161062
  C        24.3750982032        6.5429840342        0.7021322603
  C        38.2977411245       31.9275099374        5.8508914693
  C        37.5562072555       30.8391718703        5.1482181372
  C        36.5920107614       31.1466649842        4.1755197586
  C        35.9613813979       30.1295445187        3.4636035622
  C        36.2788089196       28.7774213314        3.7003120859
  C        37.2122678561       28.4774808276        4.7108291510
  C        37.8469353841       29.4935339401        5.4222210732
  C        35.6693602693       27.6888343403        2.9001170476
  C        35.7129794588       27.7022644884        1.4781346888
  C        36.4234183847       28.7046793076        0.7450617404
  C        25.6925866638        8.6167074229        0.7404498748
  C        25.6854366092        8.6196405416        3.5521881538
  C        38.3298591341       31.9608864795       10.1593483744
  C        37.6122434386       30.8876613972       10.9066116687
  C        36.6793315443       31.1962211200       11.9087565686
  C        36.0696419705       30.1784339123       12.6402813010
  C        36.3779932786       28.8252359538       12.3943640241
  C        37.2909279872       28.5266916160       11.3640135412
  C        37.9023108822       29.5408914910       10.6334507387
  C        35.7658114515       27.7256774821       13.1763377459
  C        35.7620957038       27.7212236553       14.5989994332
  C        36.4452818680       28.7148415029       15.3682794964
  C        46.1355624421       26.6207989108       15.2814311777
  C        46.0879760796       26.5803164193       12.4735378436
  C        22.4643768505        3.2564977432       10.2553965787
  C        23.1662191956        4.3659746061       10.9712011257
  C        24.1771512508        4.0810193987       11.9030121701
  C        24.8111025675        5.1118685987       12.5929665079
  C        24.4542222750        6.4577692760       12.3750167293
  C        23.4672300312        6.7361015818       11.4105782191
  C        22.8292926829        5.7055702107       10.7202851980
  C        25.0834027982        7.5556217341       13.1524835199
  C        25.0669352430        7.5467008329       14.5753238953
  C        24.3719840454        6.5457840761       15.3252995872
  C        26.6344498541       17.8281065229        5.7091501927
  C        25.3222538967       17.9003163288        5.0042896033
  C        25.0572126822       18.9079307874        4.0639794664
  C        23.8342253765       18.9411295129        3.3969164066
  C        22.8433255326       17.9706540062        3.6486318625
  C        23.1036654291       16.9889226453        4.6228508563
  C        24.3270325960       16.9505526691        5.2881137402
  C        21.5685226196       17.9571990660        2.8891501569
  C        21.5709328138       17.9284216163        1.4671874632
  C        22.7778625978       17.7971195433        0.7102060028
  C        34.4447908394       17.1928224861        5.9190806407
  C        35.7410589614       17.1420374976        5.1802080102
  C        35.9530937284       16.1586073260        4.2011749591
  C        37.1314966428       16.1432112350        3.4609167721
  C        38.1312676803       17.1107396593        3.6788844415
  C        37.9235114904       18.0749753345        4.6835235495
  C        36.7417053744       18.0952513406        5.4216547491
  C        39.3822236405       17.1152205685        2.8861877535
  C        39.3714949241       17.1092696241        1.4641174279
  C        38.1598303568       17.2098317542        0.7102597384
  C        20.3254716438       17.9440368056        0.7577518136
  C        20.3441922979       17.9590230425        3.5714725899
  C        34.4395476482       17.2447105796       10.1793335852
  C        35.7370195675       17.1450095394       10.9085330836
  C        35.9666278516       16.1322253585       11.8524187690
  C        37.1549011807       16.1037260549       12.5788061134
  C        38.1467118938       17.0827925930       12.3753716578
  C        37.9259688803       18.0686802911       11.3955756116
  C        36.7350731413       18.1048999984       10.6764383486
  C        39.3983570661       17.0925362297       13.1658904585
  C        39.3796182424       17.0958190809       14.5869293717
  C        38.1635522748       17.2007329519       15.3333161473
  C        35.1280179647       26.6412609364       15.2990701757
  C        35.1832164876       26.6526304689       12.4893636379
  C        26.5729409768       17.8257695535       10.3166585301
  C        25.2595125213       17.8696019087       11.0257589384
  C        24.9980365812       18.8723892052       11.9718662691
  C        23.7804099456       18.8983258859       12.6462809127
  C        22.7948537264       17.9219343476       12.3978838521
  C        23.0513796165       16.9434950266       11.4203499571
  C        24.2698127355       16.9151480810       10.7446201830
  C        21.5298542939       17.9059434126       13.1687203006
  C        21.5508765043       17.8996140598       14.5901816140
  C        22.7676908507       17.7825525474       15.3340780547
  C        14.0468077740       17.8300454557       10.2869365973
  C        15.3523361362       17.8896305451       11.0083541548
  C        15.6105224966       18.8955380718       11.9525649277
  C        16.8205995613       18.9176909527       12.6430709756
  C        17.8058889434       17.9367123440       12.4112340532
  C        17.5529153864       16.9558122100       11.4338551790
  C        16.3423683566       16.9290940171       10.7448559125
  C        19.0739350705       17.9188448434       13.1806817975
  C        19.0696190963       17.9186373590       14.6030158944
  C        17.8613196971       17.8228277599       15.3628251684
  C        46.8021995068       17.2162427310       10.1557360981
  C        45.5070436812       17.1467035959       10.8938935703
  C        45.2974622276       16.1604453853       11.8701822941
  C        44.1123877960       16.1345378454       12.6008182505
  C        43.1062078574       17.0949135416       12.3780558641
  C        43.3120586770       18.0597396066       11.3734410395
  C        44.4980444566       18.0893050523       10.6434009597
  C        41.8534502700       17.1002922225       13.1688263991
  C        41.8638563645       17.0989370471       14.5910574906
  C        43.0755955134       17.1988778151       15.3448416980
  C        20.3149787525       17.9297289427       15.3130220879
  C        20.2989183883       17.8957787403       12.5001770451
  C        46.7864000452       17.2334086098        5.8854721479
  C        45.4865415888       17.1316071573        5.1620998719
  C        45.2696195293       16.1322612885        4.2012774057
  C        44.0837599071       16.1056280605        3.4712633146
  C        43.0851554389       17.0757683302        3.6844051841
  C        43.2938228955       18.0472887812        4.6811916447
  C        44.4805391875       18.0797715881        5.4067943700
  C        41.8368852784       17.0923785005        2.8900420682
  C        41.8557051754       17.0939667953        1.4687963516
  C        43.0716433705       17.1937429114        0.7217760779
  C        46.1532998147       26.6371938021        0.7261930005
  C        46.1623061104       26.6560379890        3.5358352280
  C        14.0448260694       17.8323379792        5.7079858334
  C        15.3638814226       17.9092245008        5.0148322148
  C        15.6314259529       18.9253450009        4.0851894712
  C        16.8583441718       18.9666833748        3.4269127510
  C        17.8454932823       17.9913005018        3.6728745025
  C        17.5845623535       17.0037952023        4.6403549206
  C        16.3595321289       16.9617606477        5.3020073504
  C        19.1123224016       17.9713351001        2.9033041211
  C        19.0896300921       17.9453077615        1.4817095893
  C        17.8710521427       17.8343930470        0.7392291794
  C        28.7954835985       14.1281425174       10.4020984420
  C        28.1937415589       12.9550173069       11.0995689623
  C        28.9155761874       12.2240044786       12.0549420905
  C        28.3227947919       11.1396575209       12.6985179205
  C        26.9947644837       10.7621977800       12.4114817014
  C        26.2953328398       11.4763924238       11.4221019735
  C        26.8849477216       12.5598734002       10.7772107831
  C        26.3283737397        9.6735282652       13.1629114766
  C        26.3036690615        9.6981246041       14.5836285365
  C        26.7909540977       10.8145223728       15.3347148394
  C        32.1816819875       21.2379600623       10.1337912659
  C        32.7801567793       22.4009533124       10.8557519818
  C        32.0346234154       23.0737662214       11.8365556489
  C        32.6056502892       24.1113732862       12.5673717054
  C        33.9386809332       24.5058561138       12.3402032745
  C        34.6665742011       23.8516393451       11.3279322998
  C        34.0979033004       22.8085293245       10.5983874124
  C        34.5652328399       25.5812281963       13.1442968738
  C        34.5474409857       25.5541059669       14.5664711247
  C        34.0404840777       24.4365920319       15.3017481585
  C        25.6951852632        8.6153075337       15.2958387900
  C        25.7009705634        8.6208640176       12.4826823087
  C        32.0880100904       21.1690974491        5.8325907313
  C        32.6511008908       22.3409372057        5.1012876021
  C        31.9278133542       22.9734658778        4.0783300332
  C        32.4972017404       24.0244174735        3.3613358250
  C        33.8048794478       24.4692492587        3.6427993074
  C        34.5068624847       23.8504217967        4.6955391486
  C        33.9418076061       22.7994158087        5.4117022184
  C        34.4479482888       25.5557252125        2.8666316204
  C        34.4868561542       25.5413169993        1.4442854011
  C        34.0112169219       24.4306347143        0.6782773477
  C        40.6152789359       17.0838280865        0.7503090637
  C        40.6086244852       17.1228028964        3.5600588342
  C        28.7406439818       14.0660884019        5.7838181872
  C        28.1254733755       12.9131542563        5.0631865918
  C        28.8537014176       12.2206665511        4.0838358992
  C        28.2703268598       11.1616870967        3.3940269403
  C        26.9416984483       10.7712819638        3.6556905609
  C        26.2315478132       11.4493134364        4.6639006186
  C        26.8145178766       12.5077784892        5.3580099824
  C        26.2971346104        9.6853353220        2.8805471188
  C        26.2883546436        9.7046272602        1.4588841034
  C        26.7821827346       10.8188953417        0.7104779816
  C        18.1353543832        3.1808926801       10.3171499672
  C        17.4059094519        4.2781280890       11.0156955473
  C        16.3901711840        3.9997083508       11.9431699327
  C        15.7423802706        5.0396500044       12.6066787604
  C        16.0942586002        6.3833854859       12.3670442843
  C        17.0836187072        6.6529813177       11.4032775762
  C        17.7327556322        5.6156705756       10.7382111362
  C        15.4699481204        7.4910778903       13.1301262793
  C        15.4852224307        7.4903983318       14.5518455413
  C        16.1867009153        6.4967221061       15.3050074696
  C        42.9456991761       31.8595314331       10.0727916943
  C        43.6460814180       30.7718250406       10.8167920741
  C        44.5916223545       31.0931704688       11.8028326309
  C        45.1973520636       30.0876445808       12.5505137054
  C        44.8709117915       28.7345892542       12.3356759853
  C        43.9450237402       28.4202216642       11.3225368400
  C        43.3361778533       29.4253516832       10.5744921919
  C        45.4885809462       27.6553087446       13.1388416976
  C        45.4927150236       27.6808646341       14.5605395809
  C        44.8054986984       28.6888206781       15.3071683016
  C        14.8563636453        8.5629543999       15.2642164087
  C        14.8747596246        8.5629054650       12.4515470919
  C        42.9462986789       31.9615265004        5.8089173707
  C        43.6914907118       30.8853507439        5.0953839464
  C        44.6563708168       31.1912438374        4.1233723100
  C        45.2778955976       30.1716497796        3.4056439802
  C        44.9538161991       28.8213686608        3.6430276455
  C        44.0199308513       28.5237079174        4.6534206473
  C        43.3916515092       29.5404850499        5.3655805983
  C        45.5629037700       27.7239669750        2.8577876854
  C        45.5331989405       27.7172675644        1.4364932563
  C        44.8267807306       28.7074424349        0.6835622167
  C        35.0998738624       26.6335245553        0.7446849408
  C        35.0517609391       26.6166814338        3.5548695541
  C        18.1486182535        3.2469033480        5.7066461890
  C        17.4300808893        4.3437749720        4.9972754152
  C        16.4146149362        4.0525218580        4.0739905490
  C        15.7662948136        5.0831635166        3.3986101252
  C        16.1212122145        6.4283687293        3.6210830078
  C        17.1128921494        6.7117481350        4.5780266641
  C        17.7605578618        5.6828213683        5.2577903880
  C        15.4906583123        7.5240661037        2.8486621223
  C        15.4964020705        7.5073910575        1.4275257865
  C        16.1929933532        6.5055761340        0.6808214409
  H        10.6725690288       12.4657531318        3.9046186391
  H        11.6948407045       10.5509573294        2.6627495322
  H        15.3919244743       11.1688100582        4.7721259727
  H        14.3515000971       13.0715920132        6.0172767551
  H        13.3765064802       11.6312940106        1.2013279220
  H        50.3226747262       22.7482166224        3.9866326033
  H        49.3195702543       24.6226269280        2.6806000901
  H        45.6424104013       24.1617085704        4.8641664170
  H        46.6633233167       22.2908317741        6.1725246005
  H        47.6301504299       23.5760088471        1.2460630716
  H        14.8724331784        8.5883581602        4.6085731003
  H        50.2870283465       22.7023000493       12.0606824454
  H        49.2691624098       24.5752142605       13.3606574565
  H        45.6111151860       24.1102476969       11.1451244672
  H        46.6531583715       22.2549040628        9.8308203518
  H        47.6081955098       23.5520388629       14.7967753684
  H        40.6278203186       17.0891619761       11.4069642858
  H        48.6872544400       14.0950958527        7.8000570099
  H        10.6813479266       12.4667475439       12.0934024549
  H        11.6895887583       10.5247987438       13.2971075140
  H        15.3934773998       11.1588447740       11.2055738685
  H        14.3650861604       13.0872841235        9.9903379210
  H        13.3760611804       11.6222247797       14.7531380308
  H        47.9301858794       14.2189639387        9.7108461677
  H        47.7800876679       14.3742739167        6.4956040942
  H        49.0832051025       18.5521527241       10.8672331476
  H        10.4163837483       14.1343457634        7.9988025704
  H        24.4717766834        3.0228651335        3.9076408422
  H        25.6081953663        4.8798636327        2.6732144591
  H        23.2371261952        7.7503743329        4.8265759154
  H        22.1197735632        5.8836568781        6.0632640178
  H        23.8133670086        5.7831348683        1.2376695798
  H        36.3613170273       32.1909857718        3.9786805543
  H        35.2148361286       30.3742749791        2.7111661377
  H        37.4660918077       27.4370154712        4.9030231379
  H        38.5928072438       29.2668228187        6.1804878238
  H        36.9819715088       29.4568201919        1.2944950382
  H        25.7186491947        8.5976775747        4.6399450270
  H        36.4514625285       32.2402888228       12.1113886498
  H        35.3396902979       30.4247925622       13.4082234260
  H        37.5424870328       27.4866698949       11.1669518040
  H        38.6280576755       29.3137397714        9.8563350489
  H        37.0215511272       29.4744118650       14.8477841855
  H        46.1094302411       26.5878274604       11.3855036897
  H        44.6681655212       35.1160995479        7.8139869933
  H        24.4562528758        3.0429281349       12.0689948488
  H        25.5972202661        4.8830385443       13.3094137527
  H        23.1793568087        7.7702776509       11.2327014027
  H        22.0513488619        5.9185135798        9.9906921226
  H        23.8076752796        5.7884869760       14.7889296087
  H        44.9533618390       34.3900714045        9.6950635117
  H        44.9015818856       34.2066863397        6.4907075534
  H        40.6656402307       33.2087395915       10.8530039724
  H        23.1504112261        1.9576443448        8.0042907029
  H        25.8191531574       19.6590622479        3.8682727079
  H        23.6330385889       19.7253873341        2.6702726764
  H        22.3492473027       16.2314077219        4.8251508938
  H        24.5415050892       16.1779170996        6.0225610918
  H        23.7178420937       17.6766310446        1.2409538850
  H        35.1763479459       15.4178141166        4.0279816107
  H        37.2935600744       15.3728066124        2.7101947924
  H        38.6871187485       18.8307112072        4.8559127978
  H        36.5645314470       18.8551078647        6.1794027029
  H        37.2212948576       17.3267550840        1.2446391899
  H        20.3503309134       18.0014902949        4.6592401285
  H        35.2034112106       15.3736698621       12.0106925901
  H        37.3295380436       15.3165603678       13.3091230147
  H        38.6856443378       18.8304092265       11.2327396368
  H        36.5441977092       18.8833869552        9.9416827283
  H        37.2273887318       17.3096199601       14.7932416424
  H        35.1634231002       26.6786127938       11.4014746331
  H        28.5101379375       21.0628230757        7.8602619574
  H        25.7611719288       19.6245237014       12.1595263555
  H        23.5773995876       19.6805415221       13.3745719387
  H        22.2990058055       16.1825918959       11.2230326512
  H        24.4833716039       16.1483546743       10.0038031618
  H        23.6996832568       17.6507111254       14.7926316832
  H        29.0127989311       21.7144294408        9.7332271911
  H        29.1814143414       21.7166837661        6.5468496204
  H        32.0983640211       18.6473013854       10.8748252981
  H        27.3727760188       19.0037177499        7.9959436997
  H        14.8523503451       19.6549702004       12.1301525918
  H        17.0177963821       19.7033406784       13.3692733227
  H        18.3038229229       16.1910583566       11.2461605372
  H        16.1346176645       16.1584885914       10.0063263288
  H        16.9194709497       17.7069651978       14.8344734867
  H        46.0808559294       15.4281137378       12.0507121285
  H        43.9520499924       15.3627498813       13.3504809487
  H        42.5439042492       18.8096347854       11.1960240638
  H        44.6729071664       18.8492002832        9.8852995178
  H        44.0149676402       17.3127133772       14.8114485090
  H        20.2943834302       17.9241747863       11.4119967339
  H        46.0454738528       15.3897162214        4.0291773248
  H        43.9178970645       15.3285201603        2.7282991783
  H        42.5285214717       18.8016217998        4.8517311131
  H        44.6620892551       18.8478722715        6.1545618953
  H        44.0083085700       17.3026314286        1.2608991980
  H        46.1991125823       26.6826329535        4.6232804969
  H        52.7413054443       21.0627627538        8.1946924745
  H        14.8679860198       19.6766084991        3.8955314596
  H        17.0651316018       19.7578604330        2.7094291957
  H        18.3383948264       16.2443864512        4.8376793764
  H        16.1429033116       16.1865983095        6.0330534965
  H        16.9365067470       17.7272310815        1.2816783830
  H        52.3229658305       21.6735886039        6.2942632713
  H        52.0138303546       21.7025787382        9.4957481438
  H        49.0683356730       18.6081370736        5.2037781161
  H        13.2476301221       19.0164377615        7.9769336086
  H        29.9402577693       12.5157092052       12.2755215597
  H        28.8846805648       10.5706152188       13.4360521149
  H        25.2689483217       11.1967502175       11.1935208788
  H        26.3419782745       13.1302738328       10.0277411934
  H        27.1456507551       11.6896445625       14.7989698297
  H        31.0111276928       22.7571783341       12.0222978355
  H        32.0207775476       24.6305875356       13.3234478639
  H        35.6981237070       24.1457594826       11.1450999096
  H        34.6667480987       22.2800434305        9.8367660428
  H        33.6982539383       23.5629001793       14.7544711187
  H        25.7378447315        8.6038411767       11.3947993474
  H        30.9256252107       22.6190318584        3.8471672775
  H        31.9276915666       24.5150520325        2.5750718336
  H        35.5187331239       24.1805325378        4.9212120469
  H        34.4922392847       22.3020048256        6.2066033731
  H        33.6474967970       23.5512889397        1.2020367174
  H        40.6062629979       17.0980024361        4.6480975227
  H        32.5033989209       14.1476142573        8.1406489392
  H        29.8763690852       12.5291743634        3.8800299261
  H        28.8418150709       10.6205057721        2.6431318977
  H        25.2036284223       11.1599108723        4.8725793316
  H        26.2626124029       13.0487788346        6.1229678469
  H        27.1291738787       11.6969978980        1.2473408976
  H        33.3131340244       14.2546546902        6.4039184031
  H        33.4100633687       14.3628160323        9.5189006217
  H        32.0843604470       18.4434646454        5.0499066216
  H        30.1804869919       14.1381281148        8.0949219388
  H        16.1181532480        2.9631870038       12.1295534193
  H        14.9529147505        4.8201985711       13.3223014044
  H        17.3660224415        7.6858706775       11.2101938109
  H        18.5147605916        5.8183634796       10.0103394507
  H        16.7531402045        5.7393015632       14.7714980923
  H        44.8278897873       32.1402634336       11.9769728948
  H        45.9372316234       30.3414129039       13.3064401000
  H        43.6822695329       27.3781578610       11.1524887920
  H        42.5995131225       29.1900251102        9.8098666322
  H        44.2300651986       29.4365255054       14.7688573262
  H        14.8510284186        8.5461604474       11.3633256826
  H        44.9001575437       32.2339150252        3.9321752191
  H        46.0250210180       30.4128483764        2.6526141846
  H        43.7626221771       27.4840093921        4.8446821958
  H        42.6448202623       29.3177282601        6.1237141908
  H        44.2681945082       29.4702513232        1.2181814160
  H        34.9968812468       26.6319319216        4.6418092736
  H        36.6051332693       35.1340213522        8.1806300703
  H        16.1433398927        3.0129575462        3.9044777653
  H        14.9737584083        4.8563258797        2.6887566020
  H        17.3966429062        7.7471933442        4.7546644154
  H        18.5436544526        5.8932462319        5.9823246501
  H        16.7643622036        5.7552851810        1.2192591935
  H        36.2787420264       34.4822234802        6.2733388986
  H        36.3805511143       34.2092266149        9.4996753798
  H        40.5784838536       33.2014162262        5.1541622236
  H        17.4710368087        1.9474252984        7.9741193282
  H        29.1583143954       19.4904607656       12.4796882912
  H        28.8610267149       18.7229209274        3.6004926563
  H        31.8735084522       15.7506344507        3.4634252700
  H        31.0346401135       15.6474431814       12.7812572570
  H        27.9491149442       18.0546538235       14.4311910902
  H        29.3975837360       15.1100401326       14.1420418702
  H        32.5346349303       17.2976490293        1.0509790689
  H        18.8535979412        0.8691202824       12.3352313306
  H        40.5279255342       35.2289944089        3.9521944305
  H        42.3230012419       34.4180818193        3.5909816498
  H        22.0878469632        0.6921386197       12.3514331174
  H        11.5969110931       18.7127866876       12.3825975732
  H        52.2648759221       18.4314680035        3.6772744158
  H        49.2553463243       16.4767116836        3.5844093462
  H        10.1504433467       15.7982527051       12.2925876868
  H        50.8502275225       17.6924472894        3.9540720052
  H        10.0462316116       17.3947023589       12.0519080316
  H        20.2148450995        0.0023164239       12.0419844941
  H        39.1833112523       36.1239935796        3.6861800841
 Ni        30.6485963158       17.5915185194        2.4225936965
 Ni        30.9843336328       16.2357790392       -0.3333906244
 Ni        29.7214969788       18.2295828251       -0.0013306117
 Ni        30.0567783606       17.5473959862       13.2460675423
  O        10.6500414447       14.3651378995        5.4858923586
  O        12.6132286394       14.6575589652        6.5839309152
  O        49.1478208136       16.8458873024        7.9897978884
  O        50.3502077987       20.9359067786        5.6481082840
  O        48.3485405189       20.5932544385        6.6659608687
  O        11.0519118112       17.0537611182        6.5006802058
  O        50.3209890896       20.8816389232       10.4068462464
  O        48.3467302110       20.5866993692        9.3271278519
  O        49.5435565021       18.2483825979       10.0682482167
  O        12.3591479634       18.6246939034        7.9997028742
  O        48.6932249349       14.1486109804        6.7513097656
  O         8.2098871570       14.2105118290        9.3225663310
  O        10.7353399858       14.5067585546       10.6643045285
  O        12.5717980692       14.5827991076        9.3284841861
  O        22.8441138486        2.0419266452        5.4873820986
  O        21.6052394168        3.5918966770        6.5897414830
  O        42.0578986427       34.1370529664        7.9791183462
  O        37.9814078045       33.1367209839        5.5722104526
  O        39.2168052697       31.5748760597        6.6653242981
  O        20.3082238399        1.0393983354        6.5020826743
  O        38.0244324514       33.1850835165       10.4155937851
  O        39.2186246026       31.5832598161        9.3271082501
  O        40.6521622107       33.7691164706       10.0601563406
  O        18.2558911457        1.3764890337        7.9968248149
  O        44.6222144408       35.1004976748        6.7587899682
  O        24.2053586006        0.0000167982        9.3208396585
  O        22.7532639012        2.0582532866       10.5840294184
  O        21.6248505865        3.5965063458        9.3432480152
  O        27.5386913843       18.6890328003        5.4030204061
  O        26.7683360746       16.9162354100        6.5882411369
  O        30.6309285784       19.3461939457        7.9881658571
  O        33.5947731067       16.2741721952        5.6649291032
  O        34.2726585093       18.1678058359        6.7335326968
  O        29.6043320778       17.0075849628        6.5671390605
  O        33.5478181131       16.3407919515       10.4175531688
  O        34.2959296362       18.2348480344        9.3974559024
  O        31.6486759573       18.3089998029       10.0838601685
  O        30.2926328657       15.1019776507        8.0695483629
  O        28.5560602745       21.0207673756        6.8168494468
  O        28.5131209476       20.9500885673        9.3992187110
  O        27.4589503462       18.6774165605       10.6508771241
  O        26.6949374881       16.9264166169        9.4053833541
  O        13.1483566798       18.6930964880       10.5870254247
  O        13.9189468151       16.9161237302        9.4045454890
  O        50.5962267097       19.3502036176        8.0205759655
  O        47.6821002437       16.3272066764       10.4173085598
  O        46.9505876330       18.1758991728        9.3250291266
  O        11.0697207818       17.0155831832        9.4894909025
  O        47.6758272044       16.3358850902        5.6527983795
  O        46.9261935868       18.2359416904        6.6638331425
  O        49.5686863580       18.3176711626        5.9823394216
  O        10.3188165453       15.1001764598        7.9971133738
  O        52.6707704284       21.0278854241        9.2418187006
  O        12.1468290254       20.8912617018        6.6733158951
  O        13.1067208622       18.6139810992        5.3257868868
  O        13.9576844740       16.9875577131        6.6647624780
  O        29.9692588162       14.5144644568       10.7397707071
  O        28.0800392985       14.6570784694        9.4871492891
  O        32.0740852202       16.8494802893        7.9975132859
  O        30.9668405439       20.9515414540       10.3966327832
  O        32.9479655747       20.5930616307        9.3287513154
  O        29.5622447557       17.0675643404        9.5674500056
  O        30.8817739299       20.8150719539        5.5744106149
  O        32.8676321548       20.5866642535        6.6610582894
  O        31.6809471387       18.2444738488        5.9126859236
  O        28.2648979844       18.6202010201        7.9988340246
  O        32.4901396665       14.2105907032        9.2385839041
  O        32.4033188155       14.2146536976        6.7447780975
  O        29.9053110194       14.4392411605        5.4169384700
  O        28.0477986718       14.5819497221        6.7357118292
  O        17.8891964719        1.9665913679       10.6628338329
  O        18.9562613953        3.5271662361        9.4080465705
  O        39.1685032262       34.1386737261        7.9971318341
  O        43.2801766094       33.0589193696       10.3316793721
  O        42.0343877661       31.5064367469        9.2415577512
  O        20.3174568346        1.0364578398        9.4802713199
  O        43.2760948738       33.1824797077        5.5748962469
  O        42.0052313751       31.5840722982        6.5830146650
  O        40.5788444278       33.7747135897        5.9358426388
  O        22.3672107751        1.3845375342        7.9980930834
  O        36.6727930296       35.0997522440        9.2332930502
  O        16.4456277679        0.0642149846        6.6682937997
  O        17.9364835291        2.0433383984        5.3263690246
  O        18.9190669970        3.5931011934        6.6659628814
  O        29.7782192071       18.6145367285        3.9080728960
  O        29.8273608607       18.9835562935       11.9796178300
  O        31.3940982378       16.4108717079        3.9948067899
  O        31.4809491992       16.2681053143       12.0750194160
  O        31.8470211988       16.6352195310        1.2520976663
  O        30.2345405908       15.6002138792       14.0669695634
  O        28.7901296328       18.5481543265       14.4012764500
  O        39.4566574789       35.2435282732        4.0019932504
  O        19.1415701597        0.0046734372       11.9905210160
  O        41.9695515995       35.1727002209        4.0871592143
  O        21.6914095918       -0.0693343132       11.8958886863
  O        51.3649578815       18.6143398201        4.0053136918
  O        10.7511519720       18.7470805518       11.9049589186
  O        50.0797474260       16.4127430838        4.0917225814
  O         9.5245014014       16.4831121126       11.9911866930
 Zr         9.2976827390       16.0527441625        6.1824914315
 Zr        49.8370888609       16.0068810928        9.7464431786
 Zr        22.0729528290        0.0294043844        6.1892241186
 Zr        42.4606864560       35.1534333148        9.8009297002
 Zr        29.6113620248       19.0216682507        6.1594138675
 Zr        29.5611618094       19.1790301790        9.8269176423
 Zr        11.0384389909       19.0520589521        9.8279008661
 Zr        11.0443699269       19.1549046808        6.2508954099
 Zr        31.3402553315       16.0880439151        9.7332555270
 Zr        31.3729268383       15.9987043137        6.1318545960
 Zr        18.6008512309       -0.0018692526        9.7635258267
 Zr        18.5063969379       -0.0080302932        6.2134953071
 Zr        12.3029135868       16.3235703813        7.9902151228
 Zr        48.6170939583       18.8332824674        8.0103549953
 Zr        20.3151051461        2.4732536327        7.9909585703
 Zr        40.6425436364       32.6865505039        7.9779326398
 Zr        28.3361074748       16.3264735899        8.0576951172
 Zr        32.5985644282       18.8425356927        8.0043576831
  H        29.4285032913       17.8615779188        1.4819572176
  H        32.4180556480       16.3921188995       12.3202143753
  H        30.9826648755       17.6635733808       14.9237804135
