     567
 i =      129, E =     -4728.2798985347
  C        11.8586511791       14.0534837687        5.7415655199
  C        12.4560991914       12.8904135997        5.0232766642
  C        11.7044567781       12.1717321995        4.0814097479
  C        12.2807562315       11.1094894045        3.3890362007
  C        13.6212200256       10.7394347462        3.6169645761
  C        14.3543383358       11.4427623058        4.5906462899
  C        13.7815068763       12.5077621864        5.2821783060
  C        14.2607064237        9.6487453061        2.8435593676
  C        14.2560421754        9.6566250969        1.4218509418
  C        13.7429869821       10.7587867303        0.6679238546
  C        49.1265285108       21.2333932196        5.8796929158
  C        48.5496439842       22.4012604088        5.1525980313
  C        49.2997476671       23.0687413991        4.1717710823
  C        48.7327966668       24.1078651831        3.4385786835
  C        47.4021547279       24.5092449703        3.6670177184
  C        46.6710706551       23.8601412492        4.6802772695
  C        47.2335485074       22.8152384443        5.4096178575
  C        46.7719545353       25.5869587966        2.8697449619
  C        46.7609698846       25.5573609310        1.4479881137
  C        47.2609430448       24.4422673138        0.7045261866
  C        14.8598432584        8.5701909142        0.7086039334
  C        14.8913503733        8.5967182405        3.5202111140
  C        49.1129862968       21.2035055060       10.1453697193
  C        48.5274888265       22.3647446854       10.8726395001
  C        49.2667922732       23.0257035684       11.8653284049
  C        48.6903794355       24.0601949976       12.5968119177
  C        47.3598704748       24.4567112452       12.3587095190
  C        46.6393372405       23.8115031969       11.3354743107
  C        47.2129833048       22.7756618889       10.6036698461
  C        46.7214008025       25.5316978702       13.1496909430
  C        46.7331999578       25.5281440656       14.5713874204
  C        47.2486446689       24.4289357124       15.3277681109
  C        40.6310131654       17.1241386218       15.3224295097
  C        40.6496671070       17.1551969462       12.5135007449
  C        11.8828179868       14.0864581288       10.2854692283
  C        12.4720008662       12.9104504705       10.9896445326
  C        11.7144426892       12.1774345547       11.9158501361
  C        12.2808844276       11.0948983082       12.5842838177
  C        13.6195981154       10.7208937746       12.3523321318
  C        14.3575895046       11.4362345451       11.3913770030
  C        13.7922954743       12.5174787483       10.7186785348
  C        14.2531479259        9.6241141690       13.1227671337
  C        14.2520319157        9.6441455012       14.5446134714
  C        13.7423508824       10.7531931158       15.2916678413
  C        22.5110264959        3.2442940515        5.7517282172
  C        23.2247988574        4.3488047542        5.0491048905
  C        24.2212601730        4.0663086185        4.1030758939
  C        24.8496821407        5.1039185502        3.4193979872
  C        24.4975743701        6.4467297198        3.6611531997
  C        23.5281366390        6.7208021135        4.6432083367
  C        22.8952286619        5.6848409425        5.3255825736
  C        25.1092413609        7.5504430507        2.8857449279
  C        25.0911865426        7.5402995287        1.4639533178
  C        24.3865020221        6.5438602111        0.7164518387
  C        38.2975135983       31.9282797925        5.8523077398
  C        37.5543758129       30.8407829669        5.1515200184
  C        36.5874666406       31.1499874985        4.1822674618
  C        35.9548073058       30.1337579706        3.4714835839
  C        36.2736610576       28.7818299236        3.7063439523
  C        37.2099085556       28.4800082705        4.7134773678
  C        37.8464662243       29.4952665675        5.4239111736
  C        35.6610824302       27.6952928210        2.9070830939
  C        35.6998309981       27.7108856394        1.4852809550
  C        36.4122559884       28.7117926288        0.7520449187
  C        25.7253781027        8.6045805910        0.7449874430
  C        25.7046059011        8.6259613011        3.5571727382
  C        38.3299464445       31.9604650746       10.1606171732
  C        37.6121178527       30.8881616466       10.9102152327
  C        36.6776987752       31.1991357605       11.9103967815
  C        36.0657618975       30.1834401411       12.6431940339
  C        36.3729976688       28.8292161434       12.4010781969
  C        37.2885267091       28.5281432952       11.3736573062
  C        37.9021338621       29.5403980651       10.6416937648
  C        35.7561402767       27.7319246282       13.1836507420
  C        35.7484047529       27.7296120205       14.6064547398
  C        36.4338915483       28.7218450005       15.3753940774
  C        46.1351887654       26.6207933973       15.2814918803
  C        46.0873948886       26.5799946953       12.4736029655
  C        22.4626730598        3.2556199769       10.2567346428
  C        23.1621488501        4.3629475369       10.9771696295
  C        24.1687970809        4.0734940428       11.9121188742
  C        24.8026648981        5.1012464281       12.6062295689
  C        24.4501546959        6.4481119208       12.3880567532
  C        23.4664857262        6.7309931062       11.4215616976
  C        22.8280715087        5.7033643600       10.7277371801
  C        25.0868458870        7.5429667481       13.1622412685
  C        25.0807989380        7.5355316471       14.5848801695
  C        24.3799204955        6.5425895220       15.3396825491
  C        26.5674346559       17.8301505201        5.7856199592
  C        25.2657564520       17.8967468403        5.0608065942
  C        25.0193945434       18.9048711506        4.1157265249
  C        23.8108950252       18.9385674935        3.4240644585
  C        22.8166539375       17.9673291625        3.6563406689
  C        23.0582142584       16.9834173508        4.6335721230
  C        24.2675562409       16.9448125358        5.3238076718
  C        21.5505842861       17.9624740835        2.8849826996
  C        21.5581250015       17.9535120533        1.4628832824
  C        22.7676043527       17.8417002070        0.7069166798
  C        34.4396065215       17.1957446858        5.9200910887
  C        35.7329149738       17.1430875916        5.1796256037
  C        35.9377095747       16.1739083616        4.1850543218
  C        37.1168985402       16.1625220226        3.4459179867
  C        38.1244082218       17.1174755707        3.6838419703
  C        37.9235619248       18.0653614498        4.7052386052
  C        36.7406325777       18.0836856468        5.4401735145
  C        39.3779923827       17.1262601246        2.8968152193
  C        39.3732966631       17.1419843021        1.4752117127
  C        38.1665106929       17.2687330327        0.7178237946
  C        20.3138723566       17.9704331634        0.7511264854
  C        20.3248900816       17.9551490988        3.5638093759
  C        34.4708448742       17.2439496414       10.1834454830
  C        35.7721136123       17.1691413575       10.9073317392
  C        35.9782056259       16.1938435212       11.8942498563
  C        37.1644934403       16.1730422408       12.6216788868
  C        38.1720953214       17.1273175669       12.3821573692
  C        37.9715731585       18.0779615490       11.3639208412
  C        36.7833776498       18.1038091422       10.6390658260
  C        39.4184756723       17.1439837232       13.1779053546
  C        39.3941138334       17.1527750733       14.5991187863
  C        38.1765349167       17.2729651525       15.3408741323
  C        35.1085795599       26.6530642509       15.3070784455
  C        35.1727365491       26.6588020102       12.4973628991
  C        26.5640863320       17.8270868631       10.3249719672
  C        25.2493630285       17.8801005584       11.0259036645
  C        24.9770484478       18.9056724226       11.9437653408
  C        23.7594631742       18.9375229091       12.6167443887
  C        22.7856624587       17.9446612366       12.3930815289
  C        23.0504451018       16.9444163956       11.4402534049
  C        24.2692633908       16.9098462253       10.7662239038
  C        21.5219158218       17.9343804205       13.1645543970
  C        21.5427465112       17.9378975796       14.5856986902
  C        22.7602334639       17.8345253945       15.3305283209
  C        14.0450563850       17.8317103155       10.2845410207
  C        15.3507114665       17.8961988395       11.0030825248
  C        15.6087835047       18.9108440305       11.9375655543
  C        16.8187016874       18.9382962934       12.6272190753
  C        17.8017488176       17.9537157420       12.4033488043
  C        17.5493475170       16.9641296153       11.4350676090
  C        16.3389995461       16.9324397607       10.7465442215
  C        19.0680538283       17.9415094156       13.1734527463
  C        19.0615804579       17.9458816792       14.5951454104
  C        17.8514614431       17.8478921220       15.3515185312
  C        46.8054466463       17.2189592636       10.1593173613
  C        45.5166534767       17.1582094263       10.9064113464
  C        45.3123717608       16.1823054354       11.8941194335
  C        44.1317743827       16.1654810898       12.6318793274
  C        43.1258457436       17.1247291168       12.4038037097
  C        43.3275456426       18.0802960880       11.3895322233
  C        44.5087369235       18.1009823933       10.6526776193
  C        41.8732644120       17.1372580534       13.1926866179
  C        41.8782558783       17.1349158035       14.6145227666
  C        43.0869165777       17.2267014069       15.3738901868
  C        20.3057954846       17.9616760714       15.3067827782
  C        20.2928795926       17.9162834503       12.4942029926
  C        46.7854770911       17.2304439371        5.8903054426
  C        45.4818217833       17.1232477509        5.1770224699
  C        45.2642052714       16.1261889145        4.2141813547
  C        44.0760226536       16.0997531094        3.4884756559
  C        43.0765802165       17.0671880085        3.7090632642
  C        43.2840543429       18.0329592232        4.7115018841
  C        44.4733982268       18.0659820897        5.4321030181
  C        41.8314314497       17.0921060844        2.9114499422
  C        41.8571044156       17.1100839234        1.4906944099
  C        43.0770012414       17.2124139874        0.7505455409
  C        46.1530118937       26.6372686433        0.7262398340
  C        46.1619976725       26.6560533918        3.5358781311
  C        14.0409226304       17.8304663422        5.7072123093
  C        15.3560700883       17.9051304065        5.0092683394
  C        15.6232961716       18.9295623196        4.0890357964
  C        16.8476640996       18.9722731536        3.4271372894
  C        17.8298533409       17.9895744109        3.6610436041
  C        17.5684269709       16.9915424441        4.6170199697
  C        16.3462033686       16.9485461390        5.2828760438
  C        19.0959376262       17.9756902587        2.8928232186
  C        19.0763342912       17.9630319304        1.4717501224
  C        17.8586689405       17.8557335945        0.7277582559
  C        28.8095515518       14.0817811164       10.3596729431
  C        28.2058039628       12.9080527618       11.0543279393
  C        28.9443818231       12.1569859132       11.9807308469
  C        28.3525617393       11.0826969147       12.6408633798
  C        27.0091108489       10.7337085362       12.3961574024
  C        26.2915048351       11.4649696766       11.4325015973
  C        26.8802172265       12.5407783030       10.7727791894
  C        26.3474676742        9.6507586799       13.1606054196
  C        26.3428669549        9.6723277592       14.5817657665
  C        26.8605213554       10.7781980143       15.3280915022
  C        32.1802650601       21.2398072154       10.1447834173
  C        32.7771979253       22.4013404596       10.8696709344
  C        32.0249131550       23.0784761453       11.8421550642
  C        32.5910642801       24.1204351936       12.5705202337
  C        33.9258636750       24.5130417575       12.3500101724
  C        34.6612985095       23.8521570036       11.3477841959
  C        34.0971690866       22.8055811057       10.6198530716
  C        34.5487950960       25.5911229824       13.1529313027
  C        34.5243860801       25.5676335410       14.5750560419
  C        34.0068343374       24.4553465647       15.3114099962
  C        25.7248464514        8.5984656497       15.3000555100
  C        25.7038542849        8.6045176582       12.4868504635
  C        32.0749742099       21.2005374121        5.8768884455
  C        32.6397206916       22.3679361750        5.1377779182
  C        31.9033638295       23.0161258710        4.1339696645
  C        32.4736624284       24.0578951406        3.4040219951
  C        33.7938319553       24.4812907027        3.6571796557
  C        34.5104166739       23.8469697295        4.6906451819
  C        33.9457728241       22.8021680535        5.4164955138
  C        34.4341531315       25.5663420379        2.8759966644
  C        34.4634448440       25.5559637081        1.4535654122
  C        33.9756473420       24.4504565674        0.6879696286
  C        40.6200332551       17.1148806953        0.7668613734
  C        40.6009161878       17.1183878535        3.5766141245
  C        28.7385657411       14.0649862608        5.8160457046
  C        28.1345639526       12.9165338594        5.0789740712
  C        28.8844054609       12.1987759376        4.1341251019
  C        28.3067465572       11.1423325150        3.4339449107
  C        26.9643445215       10.7748805577        3.6555753477
  C        26.2316340222       11.4783265191        4.6301058734
  C        26.8067554147       12.5365851487        5.3308674352
  C        26.3275838041        9.6825862104        2.8806067835
  C        26.3331539968        9.6894885331        1.4586967637
  C        26.8532632785       10.7878420256        0.7042226572
  C        18.1353099972        3.1808327033       10.3170902129
  C        17.4057313608        4.2779806211       11.0155369243
  C        16.3902371374        3.9994344490       11.9432550262
  C        15.7423527756        5.0392876389       12.6067885334
  C        16.0938836096        6.3830909001       12.3669872692
  C        17.0829063233        6.6527926778       11.4028889420
  C        17.7321556504        5.6155784912       10.7377955796
  C        15.4695016066        7.4907125959       13.1300806701
  C        15.4848601894        7.4900477068       14.5517973073
  C        16.1863814322        6.4964226115       15.3049867114
  C        42.9457661521       31.8594593812       10.0728426733
  C        43.6460604747       30.7718053922       10.8167410997
  C        44.5915504931       31.0930850859       11.8028774290
  C        45.1971848390       30.0875029230       12.5505264540
  C        44.8706942419       28.7344483785       12.3356547789
  C        43.9449191640       28.4201563125       11.3223753128
  C        43.3361733975       29.4253278126       10.5743290679
  C        45.4882336154       27.6551551854       13.1388623887
  C        45.4924933285       27.6809067922       14.5605498086
  C        44.8054039289       28.6889589578       15.3071663230
  C        14.8559991265        8.5626051511       15.2641636639
  C        14.8741971937        8.5624782811       12.4514950862
  C        42.9463831889       31.9615406842        5.8089858257
  C        43.6915371975       30.8854713771        5.0955121210
  C        44.6560948896       31.1913806832        4.1231593371
  C        45.2775474404       30.1717863977        3.4054136965
  C        44.9537841324       28.8214637702        3.6430885207
  C        44.0203375403       28.5238070455        4.6539064562
  C        43.3921299637       29.5405708311        5.3661175802
  C        45.5627706244       27.7240817455        2.8578171711
  C        45.5330612894       27.7174324751        1.4365245052
  C        44.8267185720       28.7076381957        0.6835599700
  C        35.0805300807       26.6454436754        0.7526856814
  C        35.0454521502       26.6231481725        3.5632029758
  C        18.1485171380        3.2468529442        5.7066695604
  C        17.4297503530        4.3436320908        4.9974720482
  C        16.4147326769        4.0522376202        4.0737200448
  C        15.7663021515        5.0827840091        3.3983165187
  C        16.1206559535        6.4280897913        3.6211477422
  C        17.1117509103        6.7115824992        4.5786801706
  C        17.7595377289        5.6827631948        5.2584761166
  C        15.4901491986        7.5237433844        2.8486533125
  C        15.4959897120        7.5070497779        1.4275123466
  C        16.1926571355        6.5052899496        0.6808032844
  H        10.6723982495       12.4660635332        3.9042937322
  H        11.6944664666       10.5511674166        2.6623745588
  H        15.3912835499       11.1679510391        4.7725445476
  H        14.3508679913       13.0707715936        6.0178630603
  H        13.3761076283       11.6309761800        1.2012210519
  H        50.3225525369       22.7488927354        3.9872439388
  H        49.3193207249       24.6232995668        2.6811464751
  H        45.6414666061       24.1606684338        4.8632219689
  H        46.6624691154       22.2897931668        6.1715229815
  H        47.6294381122       23.5758855876        1.2462352209
  H        14.8716236133        8.5879791884        4.6085173097
  H        50.2869171933       22.7030252218       12.0601068455
  H        49.2687956498       24.5758413155       13.3601686864
  H        45.6098157333       24.1084672301       11.1466164854
  H        46.6520871922       22.2532341775        9.8323406843
  H        47.6074004021       23.5518080290       14.7968680661
  H        40.6557205194       17.1230046857       11.4256904253
  H        48.6870584385       14.0949516372        7.8000512102
  H        10.6810462452       12.4667336946       12.0933311443
  H        11.6890348022       10.5246411566       13.2970436852
  H        15.3929495447       11.1581482845       11.2053462586
  H        14.3646373080       13.0867072729        9.9900359441
  H        13.3755711598       11.6218091528       14.7529990017
  H        47.9301243362       14.2183545807        9.7107804084
  H        47.7800741080       14.3737926815        6.4952511205
  H        49.0833260097       18.5523990106       10.8673691243
  H        10.4157991197       14.1342576570        7.9986697006
  H        24.4813162599        3.0271363705        3.9142254861
  H        25.6230559262        4.8840943836        2.6866064281
  H        23.2479428604        7.7542796647        4.8362511851
  H        22.1251152327        5.8874361378        6.0659116578
  H        23.8189014868        5.7910894048        1.2556896433
  H        36.3566295558       32.1946163352        3.9874377110
  H        35.2059575737       30.3786031328        2.7213960127
  H        37.4642180767       27.4392536689        4.9033914994
  H        38.5946974643       29.2683932426        6.1797799497
  H        36.9734273010       29.4619602064        1.3014896428
  H        25.7294160740        8.6136764503        4.6453424377
  H        36.4498126821       32.2437261723       12.1102995283
  H        35.3345213385       30.4324920632       13.4090568868
  H        37.5401604794       27.4876055798       11.1793161427
  H        38.6292212342       29.3104958708        9.8665885363
  H        37.0124749600       29.4794489922       14.8545864577
  H        46.1087102676       26.5872779130       11.3855644527
  H        44.6681389539       35.1160725166        7.8139881147
  H        24.4450062325        3.0344002339       12.0763957248
  H        25.5865493854        4.8696610415       13.3242132172
  H        23.1825682286        7.7663347334       11.2441473017
  H        22.0529062941        5.9190143366        9.9959798216
  H        23.8067734876        5.7893346848       14.8069129412
  H        44.9533227908       34.3899138521        9.6948410854
  H        44.9014535726       34.2067133261        6.4905882732
  H        40.6658758641       33.2088106790       10.8531003745
  H        23.1505694770        1.9574909531        8.0047381656
  H        25.7843717830       19.6574536884        3.9386336769
  H        23.6223503007       19.7251554491        2.6966199251
  H        22.2992466675       16.2263770985        4.8199819134
  H        24.4678468252       16.1726869806        6.0629043687
  H        23.7083161305       17.7290198764        1.2379202916
  H        35.1554514740       15.4410265847        4.0021551696
  H        37.2746764281       15.4051656752        2.6811830342
  H        38.6941658328       18.8102070776        4.8929124820
  H        36.5683145166       18.8309769947        6.2112990687
  H        37.2269265524       17.3955093257        1.2482096110
  H        20.3280425236       17.9847580628        4.6519503779
  H        35.1887342337       15.4717873439       12.0886172649
  H        37.3240034774       15.4139219231       13.3842218308
  H        38.7435183745       18.8211788649       11.1753974556
  H        36.6064063967       18.8554532723        9.8734448364
  H        37.2444227634       17.4017466722       14.7980932968
  H        35.1576717043       26.6813120187       11.4093209771
  H        28.4989478627       21.0966335144        7.8935316319
  H        25.7302649675       19.6716421285       12.1125402049
  H        23.5482538100       19.7351222276       13.3257118686
  H        22.3047238441       16.1722357928       11.2627073300
  H        24.4914173109       16.1263667919       10.0456450998
  H        23.6952667892       17.7175200402       14.7906139460
  H        28.9849598928       21.7260110623        9.7622450494
  H        29.1696507872       21.7244004999        6.5469359908
  H        32.1203925761       18.5558650857       10.9681607181
  H        27.3526840694       19.0775504229        8.0706181867
  H        14.8504313671       19.6716618989       12.1080420308
  H        17.0175119908       19.7295808686       13.3468285258
  H        18.3000807178       16.1974309175       11.2548985604
  H        16.1295812025       16.1559861272       10.0146701675
  H        16.9110019758       17.7325502524       14.8206655418
  H        46.0958313555       15.4505504021       12.0765977415
  H        43.9735901101       15.4007778457       13.3891507432
  H        42.5588383233       18.8289361435       11.2094420472
  H        44.6809549371       18.8530425616        9.8862867050
  H        44.0289458660       17.3407510163       14.8451692681
  H        20.2896801200       17.9364040079       11.4058721492
  H        46.0420563049       15.3872881248        4.0356636571
  H        43.9095937966       15.3267953914        2.7413487320
  H        42.5167194080       18.7837771407        4.8881548013
  H        44.6558524137       18.8309623084        6.1827903721
  H        44.0114126395       17.3144511982        1.2947400432
  H        46.1987825969       26.6825334388        4.6233264214
  H        52.7411015657       21.0626006621        8.1945957246
  H        14.8619855965       19.6857328043        3.9109206214
  H        17.0569015302       19.7697374895        2.7173846986
  H        18.3197812122       16.2267100573        4.8022975725
  H        16.1272993992       16.1671782177        6.0065887151
  H        16.9236669097       17.7462852791        1.2689935348
  H        52.3221581763       21.6735735758        6.2948002703
  H        52.0133013905       21.7023478624        9.4954679772
  H        49.0669096390       18.6077439840        5.2042478843
  H        13.2472770098       19.0166709335        7.9763349946
  H        29.9808230639       12.4283613416       12.1685773235
  H        28.9269291487       10.4999820983       13.3578489690
  H        25.2532058577       11.2052666767       11.2366140439
  H        26.3234294920       13.1266780938       10.0455672509
  H        27.2366030516       11.6418731838       14.7878721096
  H        31.0002482918       22.7615584096       12.0217296398
  H        32.0012192038       24.6451246422       13.3189468740
  H        35.6947289844       24.1438298072       11.1718483628
  H        34.6713075035       22.2718373713        9.8659098456
  H        33.6585958851       23.5842394272       14.7638761879
  H        25.7280786659        8.5891455840       11.3986444127
  H        30.8888938544       22.6817979066        3.9279313949
  H        31.8948235688       24.5595306093        2.6315220092
  H        35.5322383800       24.1606832748        4.8938053112
  H        34.5074729082       22.2917277606        6.1951495055
  H        33.6034845114       23.5753263802        1.2130100453
  H        40.5937328602       17.0786910237        4.6641997476
  H        32.5234270782       14.1385045743        8.2606722552
  H        29.9229143580       12.4771025850        3.9694547774
  H        28.8951673895       10.5822166879        2.7103969936
  H        25.1932014565       11.2065248337        4.8081962457
  H        26.2376549418       13.0954948307        6.0700688088
  H        27.2223028682       11.6593856332        1.2369640602
  H        33.2985498568       14.1951754799        6.4383434698
  H        33.4090576319       14.4149920659        9.6087894149
  H        32.1526795333       18.5265660113        5.1779570855
  H        30.2355406945       14.1882873321        8.0712523798
  H        16.1184523641        2.9628775835       12.1297659991
  H        14.9530685871        4.8197337058       13.3225790766
  H        17.3649327711        7.6857411155       11.2095724742
  H        18.5138856647        5.8183823249       10.0096615532
  H        16.7528447909        5.7389994708       14.7715092052
  H        44.8278754320       32.1401491377       11.9770924744
  H        45.9370199977       30.3411858740       13.3065220517
  H        43.6821761162       27.3781021234       11.1522377712
  H        42.5996246861       29.1899876442        9.8095984146
  H        44.2299643657       29.4366688263       14.7688743464
  H        14.8503185842        8.5456639028       11.3632781432
  H        44.8996126377       32.2340547861        3.9316589653
  H        46.0244204313       30.4129658417        2.6521310457
  H        43.7633640693       27.4840827471        4.8454879069
  H        42.6456247420       29.3177366070        6.1245452799
  H        44.2681489664       29.4704923452        1.2181257627
  H        34.9978125493       26.6354769234        4.6505018456
  H        36.6051326862       35.1340354269        8.1806233235
  H        16.1438468636        3.0126252122        3.9038955912
  H        14.9740993565        4.8558073274        2.6881366635
  H        17.3949123317        7.7471096302        4.7557711856
  H        18.5421554062        5.8933373882        5.9834795250
  H        16.7640188701        5.7549862959        1.2192261441
  H        36.2785843116       34.4823821465        6.2733611275
  H        36.3805741834       34.2091414864        9.4996199668
  H        40.5787813902       33.2014253083        5.1542747339
  H        17.4710640925        1.9471154063        7.9741157219
  H        28.7470018843       19.1971168334       12.3113487764
  H        28.7611366169       18.5846020728        3.8401025864
  H        30.5493734406       15.5566065471        3.8728774951
  H        31.0723616278       15.5811202062       12.4246814331
  H        29.4758987662       16.1146838042       14.6511584243
  H        32.4098445334       16.3443087783        2.0389710740
  H        32.7386047690       19.0654602652       14.6338588094
  H        18.8531367018        0.8689368305       12.3351381146
  H        40.5280628976       35.2290812991        3.9521514152
  H        42.3232537295       34.4180264654        3.5911243552
  H        22.0877852961        0.6918488563       12.3516664454
  H        11.5966571123       18.7128522644       12.3825879146
  H        52.2647463575       18.4312327827        3.6775053529
  H        49.2552840930       16.4769386469        3.5844313836
  H        10.1497944161       15.7983793374       12.2929876908
  H        50.8498955302       17.6924689917        3.9541117707
  H        10.0457476767       17.3946627986       12.0519642327
  H        20.2143695124        0.0021698870       12.0420777655
  H        39.1836061426       36.1243985736        3.6863511694
 Ni        30.8202660679       17.7352597401        3.0000323453
 Ni        31.1589323271       16.9123754135        0.0823675169
 Ni        30.3386413419       18.8533960781       -0.8341672905
 Ni        30.3099298107       17.6932155722       13.0794084102
  O        10.6499230689       14.3650681188        5.4857791027
  O        12.6131305619       14.6574262960        6.5838538018
  O        49.1479997665       16.8459550117        7.9897452051
  O        50.3500710802       20.9363899857        5.6482109172
  O        48.3484781136       20.5933715336        6.6659650556
  O        11.0512303043       17.0540378911        6.5006371447
  O        50.3207892236       20.8817802223       10.4069042657
  O        48.3466584051       20.5867799190        9.3271318547
  O        49.5434932348       18.2484578084       10.0683293801
  O        12.3589649943       18.6246727475        7.9996197185
  O        48.6932356492       14.1485130235        6.7513114727
  O         8.2098639341       14.2103318456        9.3225232917
  O        10.7353086313       14.5067112367       10.6643935643
  O        12.5717397204       14.5827066084        9.3285301303
  O        22.8445870601        2.0431538109        5.4870763998
  O        21.6058258624        3.5926023488        6.5893182571
  O        42.0578842727       34.1370899287        7.9789997394
  O        37.9813172906       33.1371679551        5.5726244368
  O        39.2171213206       31.5751646819        6.6657217137
  O        20.3083678298        1.0394958440        6.5020853054
  O        38.0243581348       33.1849250987       10.4157323305
  O        39.2181223107       31.5827677346        9.3277334870
  O        40.6521585634       33.7691396696       10.0602147293
  O        18.2558410073        1.3760573591        7.9967952757
  O        44.6221911517       35.1005467042        6.7587621212
  O        24.2053668775       -0.0000053840        9.3208162325
  O        22.7532577147        2.0575115910       10.5836918613
  O        21.6249018548        3.5965404815        9.3434228355
  O        27.4682232594       18.6946862881        5.4841329982
  O        26.6951391068       16.9194789174        6.6680232787
  O        30.6455431838       19.3538148503        8.0391059273
  O        33.5832146313       16.2790632073        5.6645425384
  O        34.2737646282       18.1690142066        6.7355896897
  O        29.5689016212       17.0552728745        6.5817265373
  O        33.6104000172       16.3278271826       10.4110255905
  O        34.3034575892       18.2457184549        9.4058036812
  O        31.6476824950       18.3178269315       10.1523027755
  O        30.3231170834       15.1555023811        8.0768842834
  O        28.5474525060       21.0324867440        6.8375743828
  O        28.5108102561       20.9605688462        9.3952447405
  O        27.4540108961       18.6783571312       10.6586837945
  O        26.6908934782       16.9289700764        9.4159085081
  O        13.1465375751       18.6937886351       10.5862476476
  O        13.9181342930       16.9160332104        9.4041641875
  O        50.5959790350       19.3503849779        8.0205720465
  O        47.6836349624       16.3269397342       10.4172219747
  O        46.9517056881       18.1757835538        9.3247379367
  O        11.0691733252       17.0157617597        9.4895688325
  O        47.6764412726       16.3354978711        5.6532835355
  O        46.9274622693       18.2357324673        6.6647537722
  O        49.5685213587       18.3178023591        5.9821975332
  O        10.3185844762       15.1001160988        7.9971044726
  O        52.6706955080       21.0279825334        9.2418037936
  O        12.1467951627       20.8914036851        6.6732968836
  O        13.1048065324       18.6144392672        5.3261962274
  O        13.9558280864       16.9868741182        6.6649018952
  O        29.9995883654       14.4307579195       10.6631366481
  O        28.0774230868       14.6564489913        9.4833971044
  O        32.1434649982       16.8595861627        8.0713071029
  O        30.9662497980       20.9532549914       10.4034260037
  O        32.9466565701       20.6015649441        9.3348376136
  O        29.5574961572       17.0797469657        9.5624748319
  O        30.8496422761       20.8811309361        5.6562805322
  O        32.8690357112       20.5855008541        6.6645024089
  O        31.6802852596       18.2488468008        5.9820503001
  O        28.2364328724       18.6761276290        8.0665157907
  O        32.4965753583       14.2110453911        9.3300792345
  O        32.4064051800       14.2116027864        6.8233396514
  O        29.9155313671       14.4414016542        5.4828451913
  O        28.0393563797       14.5866912892        6.7493302670
  O        17.8892271496        1.9665077426       10.6627729626
  O        18.9562633463        3.5270889013        9.4079760931
  O        39.1685383792       34.1385605520        7.9971568856
  O        43.2801745171       33.0589416363       10.3316406027
  O        42.0343232887       31.5065035140        9.2415985064
  O        20.3175088629        1.0365470353        9.4802116144
  O        43.2760620617       33.1825998058        5.5749485128
  O        42.0052077329       31.5841317568        6.5830410968
  O        40.5788865959       33.7747992097        5.9359020874
  O        22.3672122703        1.3846079278        7.9979931755
  O        36.6728012201       35.0996887624        9.2333006921
  O        16.4456242147        0.0642498472        6.6683299971
  O        17.9364214507        2.0432453816        5.3264541573
  O        18.9191139197        3.5930812824        6.6659312933
  O        29.6933078451       18.7593351829        4.0769477055
  O        29.6673257725       19.1081580519       11.9931536952
  O        31.2543035874       16.2053985741        4.0746661446
  O        31.2176709845       16.4053150862       11.9242962202
  O        31.9849628289       17.1557785374        1.6949931150
  O        30.4118800854       16.3349740017       14.4831230463
  O        32.0410797229       18.3986155688       14.4996914376
  O        39.4568470258       35.2438383013        4.0019825770
  O        19.1411711886        0.0044581927       11.9905452525
  O        41.9695797952       35.1726260706        4.0871822566
  O        21.6912728542       -0.0694105934       11.8958757518
  O        51.3648092568       18.6143347666        4.0052576853
  O        10.7508839952       18.7472274988       11.9050389213
  O        50.0797397067       16.4127412314        4.0916647160
  O         9.5239998650       16.4831831505       11.9912337018
 Zr         9.2967742296       16.0528378567        6.1823724123
 Zr        49.8361281809       16.0067885448        9.7464770047
 Zr        22.0730502717        0.0293745315        6.1891391262
 Zr        42.4607079585       35.1530977763        9.8009066115
 Zr        29.5840610909       19.0735774203        6.2808228956
 Zr        29.5656076420       19.1889472491        9.8339150771
 Zr        11.0375013706       19.0522275687        9.8277413269
 Zr        11.0433828532       19.1551149281        6.2510566834
 Zr        31.3457157821       16.0993148816        9.8486284830
 Zr        31.4065851765       16.0128639087        6.3020776359
 Zr        18.6008437408       -0.0020052509        9.7634472855
 Zr        18.5064506287       -0.0079957586        6.2135313126
 Zr        12.3012112681       16.3235428293        7.9903973869
 Zr        48.6164027304       18.8330874560        8.0103161776
 Zr        20.3150781701        2.4732112062        7.9907632892
 Zr        40.6427811849       32.6863631179        7.9781508580
 Zr        28.3318254513       16.3435911282        8.0852536501
 Zr        32.6351064788       18.8424861384        8.0556586518
  H        28.9457306155       19.0086566889       -0.3959909735
