     567
 i =      207, E =     -4728.3209016021
  C        11.8587278890       14.0534726606        5.7415116390
  C        12.4561811192       12.8904845210        5.0231847619
  C        11.7044817003       12.1716854790        4.0814429263
  C        12.2807905626       11.1094342153        3.3891027402
  C        13.6212993757       10.7394712219        3.6169371604
  C        14.3544479844       11.4428916789        4.5905275188
  C        13.7816261069       12.5079047972        5.2820363536
  C        14.2607432074        9.6487493699        2.8435523091
  C        14.2560528928        9.6566489548        1.4218477724
  C        13.7429866722       10.7588189527        0.6679426085
  C        49.1266604563       21.2334319303        5.8797534999
  C        48.5497793442       22.4012827913        5.1526268017
  C        49.2998098742       23.0686744095        4.1716844572
  C        48.7328267858       24.1077397348        3.4384287902
  C        47.4022573907       24.5092776074        3.6670242890
  C        46.6712812684       23.8603335177        4.6804681161
  C        47.2337986545       22.8154974938        5.4098663010
  C        46.7719860077       25.5869334994        2.8697375492
  C        46.7609735499       25.5573116316        1.4479835306
  C        47.2609233699       24.4422124564        0.7045146098
  C        14.8598645069        8.5702297294        0.7085966106
  C        14.8914568352        8.5967684483        3.5202067245
  C        49.1130314857       21.2034638785       10.1454527439
  C        48.5276130122       22.3648065014       10.8726115463
  C        49.2668061580       23.0254908523       11.8655638328
  C        48.6904080291       24.0600068158       12.5970252185
  C        47.3600507343       24.4568621940       12.3586321596
  C        46.6396603078       23.8118967473       11.3351338768
  C        47.2132657856       22.7760342390       10.6033365777
  C        46.7215053638       25.5317402311       13.1496846221
  C        46.7332209409       25.5281264357       14.5713831154
  C        47.2486264652       24.4288923264       15.3277565692
  C        40.6336974564       17.1319648240       15.3232673332
  C        40.6534958443       17.1685952103       12.5144791395
  C        11.8828883108       14.0864182884       10.2854768492
  C        12.4720540798       12.9104504507       10.9896302709
  C        11.7145173523       12.1774846534       11.9159020120
  C        12.2809773145       11.0949602267       12.5843200069
  C        13.6196754376       10.7209184221       12.3523162052
  C        14.3576451795       11.4362470163       11.3913332740
  C        13.7923544584       12.5174887834       10.7186375180
  C        14.2532048726        9.6241680005       13.1227847894
  C        14.2520781393        9.6442160960       14.5446275698
  C        13.7423594498       10.7532429764       15.2916872109
  C        22.5109096287        3.2436660073        5.7531458279
  C        23.2245255169        4.3486610341        5.0528260216
  C        24.2221041025        4.0679065782        4.1076345742
  C        24.8485087340        5.1070289975        3.4247282296
  C        24.4926367276        6.4485712056        3.6672271490
  C        23.5230250199        6.7209976067        4.6493063028
  C        22.8921304255        5.6836162117        5.3307106974
  C        25.0991604591        7.5539494080        2.8914814109
  C        25.0757256285        7.5448534497        1.4700625095
  C        24.3725923814        6.5461599770        0.7240833457
  C        38.2976363348       31.9284335727        5.8520487782
  C        37.5543954015       30.8413861364        5.1505756282
  C        36.5876917000       31.1516423874        4.1814530381
  C        35.9542350941       30.1361794009        3.4703108373
  C        36.2721283757       28.7839612078        3.7046485266
  C        37.2084992901       28.4810700793        4.7113636662
  C        37.8458700569       29.4955923561        5.4221683524
  C        35.6579709960       27.6981416812        2.9056338744
  C        35.6955292107       27.7138683415        1.4838318788
  C        36.4087094191       28.7139610278        0.7503097793
  C        25.7030639769        8.6122775476        0.7502361010
  C        25.6936759413        8.6299809853        3.5624093179
  C        38.3298077567       31.9605562400       10.1604246362
  C        37.6113673794       30.8884891359       10.9098627752
  C        36.6757299557       31.2000784913       11.9087052142
  C        36.0627632725       30.1847926969       12.6411588625
  C        36.3702141881       28.8304751182       12.4000113564
  C        37.2871908163       28.5288098510       11.3741027820
  C        37.9018137036       29.5406474886       10.6423792058
  C        35.7519730686       27.7338695276       13.1823837031
  C        35.7434732692       27.7320583901       14.6051603841
  C        36.4300149189       28.7238901798       15.3736692004
  C        46.1351264476       26.6207264206       15.2814975077
  C        46.0875815059       26.5800914277       12.4735980456
  C        22.4603464608        3.2552353665       10.2571678616
  C        23.1541264633        4.3636913070       10.9800244740
  C        24.1584547227        4.0772151156       11.9181983602
  C        24.7862774214        5.1071178519       12.6143562501
  C        24.4295948351        6.4526028408       12.3945897315
  C        23.4482428410        6.7324519380       11.4249285688
  C        22.8158645051        5.7027659912       10.7291762019
  C        25.0610656578        7.5497953159       13.1687882720
  C        25.0570065961        7.5419679362       14.5913537930
  C        24.3619459965        6.5458327823       15.3473405253
  C        26.5697937633       17.8293976852        5.7844584487
  C        25.2677029020       17.8940461332        5.0590103929
  C        25.0179671535       18.9047866116        4.1177735803
  C        23.8090288955       18.9377149707        3.4266879407
  C        22.8178508622       17.9626306192        3.6554991369
  C        23.0629103308       16.9753702605        4.6283197562
  C        24.2725605804       16.9380387742        5.3183097664
  C        21.5514087303       17.9570984044        2.8844442587
  C        21.5587910677       17.9498251469        1.4623510648
  C        22.7686509966       17.8426197883        0.7062509874
  C        34.4416437691       17.1928327359        5.9210306919
  C        35.7360109327       17.1422164744        5.1809448357
  C        35.9423781921       16.1702713675        4.1895401966
  C        37.1212920688       16.1592790588        3.4498326871
  C        38.1262162165       17.1177169977        3.6841799799
  C        37.9235861793       18.0688727827        4.7019605814
  C        36.7409132389       18.0865747838        5.4375132010
  C        39.3797395614       17.1271219176        2.8971414937
  C        39.3754996572       17.1439103012        1.4757100699
  C        38.1685229761       17.2680289943        0.7182079945
  C        20.3145161595       17.9651013018        0.7506410865
  C        20.3257211187       17.9480219620        3.5633021683
  C        34.4786393804       17.2463722180       10.1759586775
  C        35.7808183062       17.1745596700       10.8999666588
  C        35.9889827802       16.1959637842       11.8834316863
  C        37.1732124378       16.1781176710       12.6143708301
  C        38.1767955019       17.1382780246       12.3812810852
  C        37.9742101640       18.0923413329       11.3666589707
  C        36.7879065638       18.1153708810       10.6382405445
  C        39.4222256103       17.1552402841       13.1784025608
  C        39.3971474260       17.1600964461       14.5994657321
  C        38.1791444890       17.2746106765       15.3413105176
  C        35.1020284620       26.6565663335       15.3059900032
  C        35.1685697801       26.6608043379       12.4961938883
  C        26.5651735732       17.8264275301       10.3253189505
  C        25.2503921823       17.8796014720       11.0263398698
  C        24.9746174148       18.9094963665       11.9383977746
  C        23.7568694323       18.9410248648       12.6112852506
  C        22.7862722813       17.9439137325       12.3928296309
  C        23.0544929778       16.9391629429       11.4457539139
  C        24.2734562686       16.9046860218       10.7720173167
  C        21.5222718065       17.9333303781       13.1641254837
  C        21.5433598477       17.9369404841       14.5851731608
  C        22.7612371944       17.8369976631       15.3298578533
  C        14.0452003056       17.8315012216       10.2846633966
  C        15.3507524585       17.8952618952       11.0033412546
  C        15.6091579201       18.9090870719       11.9386334414
  C        16.8191584276       18.9356479968       12.6281985725
  C        17.8020612385       17.9511478858       12.4031999201
  C        17.5492623392       16.9623256927       11.4342591743
  C        16.3387873203       16.9314406931       10.7459547199
  C        19.0685086700       17.9383126314       13.1730638866
  C        19.0621558036       17.9410532852       14.5947205541
  C        17.8521212713       17.8410616534       15.3510255245
  C        46.8063188862       17.2198554502       10.1596446030
  C        45.5182950254       17.1618860159       10.9078755778
  C        45.3123515660       16.1863287631       11.8954339542
  C        44.1321983007       16.1727278054       12.6338521689
  C        43.1291213568       17.1349271855       12.4060892713
  C        43.3326767841       18.0905741423       11.3924760244
  C        44.5133707396       18.1079926317       10.6550243760
  C        41.8765613398       17.1492844979       13.1943658130
  C        41.8811283463       17.1454038786       14.6159914697
  C        43.0896959409       17.2368275873       15.3755494569
  C        20.3063739006       17.9576747429       15.3063134332
  C        20.2933352090       17.9142976042       12.4936793828
  C        46.7860009511       17.2305841121        5.8905281545
  C        45.4824107133       17.1239761272        5.1772488945
  C        45.2643905539       16.1267672518        4.2147721342
  C        44.0762948570       16.1011429653        3.4889829773
  C        43.0778668799       17.0694897232        3.7095693351
  C        43.2856597694       18.0354407238        4.7116173036
  C        44.4749868256       18.0677451462        5.4321341860
  C        41.8329301149       17.0949486869        2.9119950163
  C        41.8591562574       17.1154015475        1.4914708522
  C        43.0793373456       17.2201227865        0.7520990014
  C        46.1529536941       26.6371906816        0.7262461662
  C        46.1620600961       26.6560555546        3.5358693774
  C        14.0409759411       17.8297367303        5.7067491816
  C        15.3560232769       17.9025260527        5.0083635599
  C        15.6245421192       18.9258352050        4.0872579869
  C        16.8490952648       18.9666283521        3.4255315843
  C        17.8303577003       17.9831589286        3.6603923063
  C        17.5676131240       16.9861142519        4.6170326220
  C        16.3451663401       16.9450203677        5.2826452341
  C        19.0966409265       17.9682045645        2.8923686078
  C        19.0770302978       17.9559264374        1.4713031711
  C        17.8594505858       17.8477090041        0.7272536836
  C        28.8057355221       14.0875234676       10.3880078387
  C        28.1914387409       12.9142553469       11.0739350852
  C        28.9220119895       12.1603724226       12.0042560717
  C        28.3237024768       11.0859262024       12.6571489664
  C        26.9810489360       10.7413373455       12.4028831584
  C        26.2714982882       11.4747607631       11.4350954823
  C        26.8675805877       12.5499205996       10.7808390520
  C        26.3149663738        9.6608030328       13.1655438715
  C        26.3107519613        9.6834608183       14.5866386570
  C        26.8257362937       10.7911520435       15.3323234349
  C        32.1802083909       21.2410583355       10.1407596829
  C        32.7744248032       22.4049781035       10.8643634247
  C        32.0209408606       23.0817866016       11.8364137521
  C        32.5860917995       24.1230148392       12.5666299919
  C        33.9210971517       24.5160668594       12.3481296177
  C        34.6574110051       23.8561943222       11.3456393932
  C        34.0945689999       22.8100054862       10.6161184181
  C        34.5429479364       25.5941644731       13.1518889943
  C        34.5165853227       25.5716187364       14.5740625661
  C        33.9966452415       24.4608576061       15.3109799374
  C        25.6980278292        8.6073285836       15.3055580241
  C        25.6739313376        8.6130324756       12.4923488245
  C        32.0747002015       21.2029735505        5.8786978603
  C        32.6394750198       22.3711913114        5.1400312739
  C        31.9030966722       23.0151462751        4.1336720714
  C        32.4713874362       24.0577643945        3.4034027353
  C        33.7899601451       24.4851307405        3.6578655889
  C        34.5067097107       23.8544725740        4.6935288766
  C        33.9436748587       22.8093354007        5.4203164006
  C        34.4290986440       25.5701246381        2.8756556139
  C        34.4568177297       25.5602537935        1.4530743891
  C        33.9664546855       24.4558152337        0.6875745164
  C        40.6222717546       17.1199926631        0.7675186705
  C        40.6024512673       17.1195743363        3.5770920938
  C        28.7345308037       14.0626057403        5.8206304025
  C        28.1252908584       12.9173112978        5.0830430384
  C        28.8718895083       12.2010249170        4.1346911526
  C        28.2913278252       11.1469310354        3.4336260253
  C        26.9494019023       10.7805170755        3.6588490694
  C        26.2196617211       11.4825823281        4.6363949800
  C        26.7976764193       12.5390765107        5.3374441741
  C        26.3106167433        9.6891256112        2.8848480600
  C        26.3099131009        9.6981264008        1.4631222110
  C        26.8233828779       10.7992906561        0.7084681289
  C        18.1353253715        3.1808580194       10.3171771338
  C        17.4058188234        4.2779997178       11.0157144781
  C        16.3901803993        3.9994941170       11.9432808168
  C        15.7422753538        5.0393756186       12.6067525272
  C        16.0939449327        6.3831487225       12.3670085204
  C        17.0831463087        6.6528269514       11.4030956503
  C        17.7324008015        5.6155761784       10.7380683800
  C        15.4695709021        7.4907881373       13.1300777139
  C        15.4848786175        7.4901052239       14.5517910063
  C        16.1864448559        6.4965022378       15.3049667180
  C        42.9457469537       31.8594568697       10.0728099415
  C        43.6460554812       30.7717903735       10.8167670977
  C        44.5914336113       31.0931268633       11.8029815832
  C        45.1970774297       30.0875486456       12.5506375363
  C        44.8707440358       28.7344765913       12.3356855972
  C        43.9451283821       28.4201746319       11.3222671939
  C        43.3363450327       29.4253088519       10.5741973873
  C        45.4882822688       27.6551643039       13.1388683479
  C        45.4924543258       27.6808590467       14.5605593808
  C        44.8052918030       28.6888617887       15.3071764018
  C        14.8560148857        8.5626546612       15.2641630544
  C        14.8742862877        8.5625605922       12.4514976994
  C        42.9464145812       31.9615541972        5.8090140889
  C        43.6915965504       30.8854349903        5.0955571728
  C        44.6561863266       31.1913362817        4.1232449251
  C        45.2776058630       30.1717424758        3.4054553707
  C        44.9537656290       28.8214393477        3.6430953288
  C        44.0202498884       28.5237741992        4.6538414400
  C        43.3920831518       29.5405491505        5.3660799843
  C        45.5627463982       27.7240430408        2.8578251206
  C        45.5329643488       27.7173284683        1.4365361504
  C        44.8266149705       28.7075270337        0.6835704698
  C        35.0744373808       26.6491377485        0.7516863247
  C        35.0418396680       26.6265939613        3.5621269710
  C        18.1484822111        3.2468380297        5.7065703873
  C        17.4297577455        4.3436128502        4.9973348036
  C        16.4146384158        4.0522684945        4.0736866798
  C        15.7662143585        5.0828473919        3.3983225322
  C        16.1207074015        6.4281223724        3.6211025588
  C        17.1119708125        6.7115810734        4.5784625151
  C        17.7597345737        5.6827182298        5.2582086912
  C        15.4902190097        7.5237929605        2.8486258460
  C        15.4960350526        7.5070998479        1.4274907062
  C        16.1927248650        6.5053575655        0.6807813602
  H        10.6723978352       12.4659516146        3.9043807384
  H        11.6944795863       10.5510213264        2.6625282076
  H        15.3914213263       11.1681414162        4.7723554085
  H        14.3510473383       13.0709914271        6.0176132295
  H        13.3761145393       11.6310117060        1.2012380640
  H        50.3225451144       22.7486936869        3.9869947597
  H        49.3193051888       24.6230577605        2.6808812197
  H        45.6417518495       24.1610227598        4.8635687800
  H        46.6627862626       22.2901732223        6.1719017171
  H        47.6294723725       23.5758548775        1.2462241374
  H        14.8718004169        8.5880407454        4.6085137770
  H        50.2868398889       22.7026269449       12.0605212914
  H        49.2687711423       24.5754930613       13.3605304056
  H        45.6102908246       24.1091956586       11.1459767980
  H        46.6525114099       22.2538934445        9.8317116101
  H        47.6074397069       23.5517815109       14.7968690592
  H        40.6602003343       17.1381986667       11.4266296947
  H        48.6871097082       14.0949398477        7.8000670426
  H        10.6811195195       12.4667744350       12.0933779887
  H        11.6891510006       10.5247105318       13.2971042109
  H        15.3929959791       11.1581376777       11.2052785380
  H        14.3646923447       13.0866680708        9.9899530312
  H        13.3756300072       11.6218857370       14.7530283045
  H        47.9301755244       14.2182756195        9.7108294493
  H        47.7800973712       14.3737542835        6.4953260615
  H        49.0838784841       18.5525934385       10.8675615701
  H        10.4159694770       14.1342195678        7.9986931428
  H        24.4839842120        3.0292272816        3.9186527831
  H        25.6225279938        4.8897660852        2.6918594702
  H        23.2411140402        7.7539874848        4.8423355990
  H        22.1212607770        5.8837478775        6.0708576456
  H        23.8097055905        5.7907043981        1.2644864815
  H        36.3574806011       32.1965081425        3.9871833165
  H        35.2053715864       30.3818551035        2.7205074640
  H        37.4620900349       27.4400502176        4.9007876443
  H        38.5940283920       29.2679186856        6.1778757498
  H        36.9708695509       29.4635310179        1.2995775180
  H        25.7228685334        8.6160843767        4.6504347161
  H        36.4476964859       32.2447969882       12.1077565974
  H        35.3305861574       30.4342248096       13.4060056305
  H        37.5391765708       27.4881678818       11.1807868266
  H        38.6299846934       29.3104028309        9.8683887378
  H        37.0093124088       29.4807464253       14.8525849289
  H        46.1090239500       26.5874918045       11.3855623506
  H        44.6682004769       35.1161214664        7.8139624723
  H        24.4375300554        3.0390100060       12.0832138750
  H        25.5688697792        4.8786094609       13.3347033285
  H        23.1616346824        7.7669036199       11.2467283914
  H        22.0423005936        5.9153145736        9.9948776690
  H        23.7902837542        5.7906365014       14.8157276011
  H        44.9536168402       34.3901795056        9.6950309595
  H        44.9016899549       34.2067494855        6.4906521032
  H        40.6659523528       33.2088685899       10.8531148388
  H        23.1502997450        1.9575680195        8.0052266203
  H        25.7806508300       19.6601912752        3.9429686108
  H        23.6180377658       19.7266600806        2.7024241669
  H        22.3065287809       16.2149860681        4.8116152345
  H        24.4756169663       16.1635192927        6.0541281762
  H        23.7097194365       17.7330935455        1.2373090405
  H        35.1608801317       15.4356063451        4.0100012091
  H        37.2811325220       15.3994121123        2.6879636247
  H        38.6924163006       18.8163726612        4.8863646279
  H        36.5665403787       18.8362184931        6.2058999663
  H        37.2289305898       17.3903231206        1.2495975714
  H        20.3290875577       17.9768463053        4.6514624851
  H        35.2027215613       15.4682151994       12.0704153014
  H        37.3352257870       15.4159862734       13.3734506066
  H        38.7435008410       18.8395524685       11.1830166396
  H        36.6090877956       18.8689301035        9.8748123739
  H        37.2473088595       17.4004624597       14.7976290993
  H        35.1547340716       26.6827482818       11.4081192903
  H        28.4977593175       21.0972236032        7.8833487116
  H        25.7248088465       19.6795465935       12.1022546109
  H        23.5430122635       19.7417391623       13.3159764421
  H        22.3111920322       16.1637084210       11.2723821662
  H        24.4980796139       16.1180238944       10.0556666765
  H        23.6966471919       17.7243750204       14.7897017926
  H        28.9788510556       21.7285980304        9.7662937778
  H        29.1795339337       21.7169975906        6.5445412106
  H        32.1750631686       18.6068771690       10.9180241359
  H        27.3516049080       19.0700008399        8.0763015830
  H        14.8510088466       19.6699393772       12.1098685261
  H        17.0182091217       19.7262086667       13.3485415741
  H        18.2998039371       16.1956143010       11.2533471654
  H        16.1290688078       16.1555214588       10.0136078462
  H        16.9117607384       17.7252754490       14.8200926871
  H        46.0939770715       15.4523861745       12.0770108064
  H        43.9719417045       15.4083569282       13.3910185682
  H        42.5659533436       18.8414542992       11.2133064937
  H        44.6877347281       18.8597534230        9.8888579269
  H        44.0316466533       17.3523437493       14.8470074438
  H        20.2901426185       17.9345599245       11.4053461075
  H        46.0418095441       15.3873255062        4.0366290997
  H        43.9091538339       15.3283243819        2.7418662757
  H        42.5187854505       18.7868142056        4.8878690235
  H        44.6583179526       18.8327833762        6.1825307631
  H        44.0133814507       17.3217854308        1.2970106708
  H        46.1989198029       26.6826008538        4.6233137679
  H        52.7412024897       21.0626276820        8.1946253785
  H        14.8642081007       19.6828182317        3.9083988885
  H        17.0592989160       19.7632970548        2.7151724394
  H        18.3180936970       16.2206237841        4.8031603831
  H        16.1253895989       16.1644299970        6.0069243769
  H        16.9245919009       17.7369035371        1.2684778007
  H        52.3224145014       21.6736227761        6.2946627505
  H        52.0133858510       21.7024118238        9.4954625245
  H        49.0672726420       18.6078629595        5.2041487134
  H        13.2474606768       19.0164298975        7.9762219521
  H        29.9569059919       12.4304368314       12.2014424235
  H        28.8912903446       10.5005861953       13.3773257998
  H        25.2339527279       11.2176709714       11.2318872135
  H        26.3179705253       13.1375645930       10.0495720926
  H        27.1970066826       11.6567653665       14.7919730987
  H        30.9954845139       22.7661851116       12.0138157945
  H        31.9949792495       24.6470597804       13.3145207883
  H        35.6907499750       24.1487689154       11.1705899663
  H        34.6694875140       22.2773781557        9.8619021013
  H        33.6455265731       23.5905242227       14.7641920972
  H        25.6984417035        8.5968156801       11.4041720351
  H        30.8908484945       22.6755732816        3.9251620361
  H        31.8920720724       24.5563080621        2.6292718909
  H        35.5274601915       24.1710997670        4.8975624809
  H        34.5054414056       22.3014350796        6.2006149264
  H        33.5925447324       23.5813957110        1.2125694265
  H        40.5950758603       17.0789717038        4.6646318342
  H        32.5247088939       14.1411769716        8.2466065149
  H        29.9101006829       12.4790493076        3.9677694250
  H        28.8768447632       10.5880246951        2.7067990969
  H        25.1814682414       11.2112421445        4.8165459717
  H        26.2312607991       13.0975913539        6.0789962404
  H        27.1915814733       11.6712671682        1.2411486136
  H        33.2977428581       14.1895649904        6.4376160151
  H        33.4081220010       14.3972389695        9.6136084590
  H        32.1527137518       18.5204789118        5.1764918470
  H        30.2264196181       14.1839086095        8.0765240621
  H        16.1183009303        2.9629478934       12.1297148888
  H        14.9528821365        4.8198663074       13.3224354196
  H        17.3653080388        7.6857565168       11.2098805158
  H        18.5142555778        5.8183467887       10.0100601912
  H        16.7529492876        5.7391157292       14.7714803935
  H        44.8276304662       32.1402112254       11.9772625237
  H        45.9368217061       30.3412832693       13.3067034851
  H        43.6825515639       27.3780981952       11.1520181234
  H        42.5999198822       29.1899633839        9.8093480534
  H        44.2298819892       29.4365910489       14.7688813142
  H        14.8504526123        8.5457637842       11.3632786705
  H        44.8997591869       32.2340119346        3.9318166490
  H        46.0245050935       30.4129379923        2.6522021519
  H        43.7632146100       27.4840517674        4.8453466345
  H        42.6455318033       29.3177486600        6.1244734027
  H        44.2680595168       29.4703824292        1.2181531695
  H        34.9951441951       26.6389435299        4.6494560117
  H        36.6051390677       35.1340498461        8.1805882600
  H        16.1436365187        3.0126723426        3.9039427679
  H        14.9739327255        4.8559285037        2.6882107596
  H        17.3953081269        7.7470813809        4.7554303042
  H        18.5424666346        5.8932435312        5.9831014428
  H        16.7641422938        5.7551026802        1.2192137581
  H        36.2785087830       34.4823931650        6.2733773538
  H        36.3805274470       34.2091546065        9.4995627454
  H        40.5788604791       33.2014491380        5.1541964457
  H        17.4708150461        1.9470970780        7.9740957458
  H        28.7617246456       19.1472032527       12.2928753127
  H        28.8107103692       18.7705046118        3.7603189768
  H        30.6201167165       15.4979723279        3.9008353363
  H        31.1193985206       15.4550777944       12.4485927615
  H        29.3056624832       15.9786841395       14.6022879295
  H        32.4561295832       16.4082150562        1.8760398074
  H        32.5913982176       18.7433136398       14.2701054150
  H        18.8532985640        0.8689559446       12.3351470937
  H        40.5279992656       35.2289795317        3.9521620873
  H        42.3233787044       34.4182800451        3.5908531361
  H        22.0876768103        0.6919790203       12.3514820853
  H        11.5966199071       18.7130050393       12.3827322821
  H        52.2646386667       18.4314365963        3.6772224211
  H        49.2553151349       16.4768262372        3.5843538707
  H        10.1502130612       15.7982892550       12.2927639156
  H        50.8499327658       17.6924496919        3.9540916698
  H        10.0460408754       17.3946347356       12.0519382327
  H        20.2145826952        0.0021853671       12.0420142945
  H        39.1835243167       36.1242833352        3.6863372502
 Ni        30.8178386289       17.7403748171        2.9987803634
 Ni        31.0747330383       17.0583572148       -0.0830936797
 Ni        30.1837225432       19.1357162665       -0.7485592553
 Ni        30.4356900529       17.6228665279       12.9950519373
  O        10.6499586250       14.3650883093        5.4857704911
  O        12.6131132324       14.6574090755        6.5838712729
  O        49.1480827595       16.8459401865        7.9897362702
  O        50.3501241227       20.9362972776        5.6481592011
  O        48.3484815234       20.5933896343        6.6659318917
  O        11.0513239817       17.0540329955        6.5006609696
  O        50.3208464896       20.8817815306       10.4068960967
  O        48.3466673234       20.5868298350        9.3271368905
  O        49.5436312953       18.2484269369       10.0683745600
  O        12.3590430268       18.6246608484        7.9996247086
  O        48.6932660367       14.1485037259        6.7513233460
  O         8.2098814966       14.2103440676        9.3225255324
  O        10.7353462682       14.5067545412       10.6643265256
  O        12.5717615745       14.5826884853        9.3285229894
  O        22.8443735031        2.0427527701        5.4873994949
  O        21.6050422084        3.5919462206        6.5899944237
  O        42.0579131524       34.1370753931        7.9789994245
  O        37.9813281971       33.1373378703        5.5726328445
  O        39.2170194968       31.5750802874        6.6655967734
  O        20.3083116005        1.0393117202        6.5019836625
  O        38.0243380279       33.1849458480       10.4157188678
  O        39.2181132127       31.5827352770        9.3277866213
  O        40.6521629156       33.7690963237       10.0601636479
  O        18.2556439293        1.3761209386        7.9967698552
  O        44.6222251087       35.1005330982        6.7587522920
  O        24.2053609161       -0.0000222453        9.3207896461
  O        22.7529499959        2.0574405277       10.5836221569
  O        21.6241791653        3.5957907038        9.3422583293
  O        27.4682304466       18.6951173267        5.4833634172
  O        26.6960783083       16.9194255370        6.6686063150
  O        30.6450373973       19.3541827947        8.0264378585
  O        33.5878050385       16.2772544348        5.6668112552
  O        34.2749170585       18.1694472321        6.7345502116
  O        29.5670211560       17.0543463318        6.5849450719
  O        33.6217916361       16.3301903775       10.4076992644
  O        34.3038318441       18.2503381598        9.4039955896
  O        31.6487328278       18.3142382478       10.1570129694
  O        30.3217734788       15.1504678883        8.0840478210
  O        28.5479631397       21.0324851843        6.8333961746
  O        28.5101526281       20.9606941986        9.3977905020
  O        27.4559237807       18.6780030095       10.6597252296
  O        26.6918737329       16.9288126218        9.4164387869
  O        13.1466924524       18.6936879588       10.5862684900
  O        13.9181177059       16.9159873124        9.4041155103
  O        50.5961737419       19.3503632893        8.0205415682
  O        47.6835627066       16.3269778174       10.4172508501
  O        46.9521465464       18.1759446656        9.3243499954
  O        11.0693358970       17.0157089622        9.4896062879
  O        47.6765451038       16.3354407446        5.6532828570
  O        46.9278242037       18.2357820064        6.6649520967
  O        49.5686611856       18.3177484884        5.9821716317
  O        10.3185962699       15.1000630755        7.9971089912
  O        52.6707726367       21.0280346732        9.2418196008
  O        12.1468507734       20.8914018874        6.6732815947
  O        13.1051225371       18.6143253346        5.3261326783
  O        13.9557731978       16.9867334115        6.6649881566
  O        29.9897971577       14.4376193342       10.7259850541
  O        28.0873851618       14.6541212836        9.4927969901
  O        32.1453187765       16.8573986874        8.0766530754
  O        30.9661287366       20.9519323513       10.4036976887
  O        32.9466107760       20.5998850477        9.3350164366
  O        29.5661586935       17.0756120393        9.5737757785
  O        30.8509100938       20.8851896467        5.6590489070
  O        32.8702497150       20.5855411279        6.6642511712
  O        31.6809749748       18.2480907855        5.9828085694
  O        28.2378120491       18.6742338944        8.0666913442
  O        32.4947220599       14.2105075386        9.3269240096
  O        32.4080038943       14.2085778012        6.8277132455
  O        29.9112387036       14.4337739432        5.4895463483
  O        28.0361654614       14.5883571765        6.7535430211
  O        17.8891759216        1.9665026243       10.6627760105
  O        18.9561742207        3.5270843023        9.4080124165
  O        39.1685657031       34.1386051517        7.9971941325
  O        43.2802101712       33.0588677899       10.3316812505
  O        42.0342946077       31.5064654349        9.2416007859
  O        20.3174433388        1.0364654388        9.4803046998
  O        43.2760393184       33.1825675024        5.5749146083
  O        42.0052045957       31.5841372551        6.5830217298
  O        40.5788934048       33.7747441897        5.9358743011
  O        22.3671468995        1.3844093320        7.9979191759
  O        36.6728029552       35.0996881733        9.2332890658
  O        16.4455614681        0.0642605066        6.6683207680
  O        17.9363921709        2.0431974499        5.3264313536
  O        18.9189512627        3.5931452124        6.6658722445
  O        29.7291671728       18.8343653214        4.0839815013
  O        29.6850166161       19.0642729221       11.9840349203
  O        31.2609454158       16.1934551981        4.1456265852
  O        31.3940815414       16.2664475115       11.9811611197
  O        31.8967228978       17.1497431059        1.5847814210
  O        30.2393154527       16.1871334551       14.4280853946
  O        31.7274539527       18.3191245907       14.4026612534
  O        39.4567456784       35.2437135967        4.0019745027
  O        19.1412838052        0.0044789173       11.9905122500
  O        41.9695645813       35.1726747140        4.0871146507
  O        21.6912347875       -0.0694344397       11.8958706035
  O        51.3647652291       18.6143441755        4.0052818211
  O        10.7509147244       18.7472112792       11.9050369719
  O        50.0797063231       16.4127606954        4.0916858296
  O         9.5243234983       16.4831114027       11.9912289648
 Zr         9.2971159488       16.0527618986        6.1824212384
 Zr        49.8364310443       16.0067489121        9.7464018005
 Zr        22.0730951394        0.0294155014        6.1890735972
 Zr        42.4607750667       35.1531956996        9.8008567636
 Zr        29.5790786024       19.0684058859        6.2601966511
 Zr        29.5708690490       19.1941074185        9.8131943274
 Zr        11.0378239514       19.0522035957        9.8277460575
 Zr        11.0437206134       19.1550988609        6.2509630102
 Zr        31.3588704838       16.0889504568        9.8519680210
 Zr        31.4009777484       16.0054910643        6.2941249573
 Zr        18.6008802436       -0.0018385475        9.7635235221
 Zr        18.5064747773       -0.0079450649        6.2135406411
 Zr        12.3015166989       16.3234820749        7.9903782002
 Zr        48.6169551224       18.8332313393        8.0102295229
 Zr        20.3147115736        2.4730343764        7.9905974647
 Zr        40.6428284651       32.6865792011        7.9780966214
 Zr        28.3365125190       16.3412184727        8.0846184022
 Zr        32.6330381476       18.8357087809        8.0411098334
  H        28.9434512775       19.4651542272       -0.0239247205
