     571
 i =      290, E =     -4761.6769236388
  C        11.8587201887       14.0535425148        5.7416049310
  C        12.4562553443       12.8905424165        5.0233425774
  C        11.7046066771       12.1717139233        4.0815818978
  C        12.2810059532       11.1095462837        3.3891807286
  C        13.6215251003       10.7396510734        3.6170607827
  C        14.3546323304       11.4431033931        4.5906593235
  C        13.7817147515       12.5080379771        5.2822105529
  C        14.2611186757        9.6490434979        2.8436415140
  C        14.2565030724        9.6569888929        1.4219401096
  C        13.7433056405       10.7590997221        0.6680374169
  C        49.1267355290       21.2332604803        5.8797265903
  C        48.5499848807       22.4011855010        5.1526332183
  C        49.3000745337       23.0685551873        4.1717148060
  C        48.7331569081       24.1076942855        3.4385092139
  C        47.4025700015       24.5092402706        3.6670255094
  C        46.6714982117       23.8601989567        4.6803385744
  C        47.2339335011       22.8152911533        5.4096971318
  C        46.7723733709       25.5869684541        2.8697585819
  C        46.7614416933       25.5574055279        1.4479933367
  C        47.2613355649       24.4422938816        0.7044959063
  C        14.8604604551        8.5706596868        0.7086755341
  C        14.8918747272        8.5970751352        3.5202742047
  C        49.1131955426       21.2034362435       10.1453570303
  C        48.5278364977       22.3648038022       10.8725326686
  C        49.2671380347       23.0256844492       11.8652790580
  C        48.6908165697       24.0602514993       12.5967269473
  C        47.3603313646       24.4568661444       12.3586343930
  C        46.6398102725       23.8117737499       11.3353090981
  C        47.2133629569       22.7758442159       10.6035522220
  C        46.7219212688       25.5318716013       13.1496564545
  C        46.7336851868       25.5282443486       14.5713619979
  C        47.2490885563       24.4290073639       15.3277322377
  C        40.6318080587       17.1065307771       15.3200767560
  C        40.6495917726       17.1418184699       12.5109706751
  C        11.8829599388       14.0865546631       10.2854724593
  C        12.4723198932       12.9107278135       10.9897130216
  C        11.7148199695       12.1776088232       11.9158889615
  C        12.2813754775       11.0951421546       12.5843302806
  C        13.6201780512       10.7213791819       12.3524787362
  C        14.3581073732       11.4367798604       11.3915191672
  C        13.7926923594       12.5179565655       10.7188221378
  C        14.2537760865        9.6246137316       13.1228730749
  C        14.2526199868        9.6446177512       14.5447122893
  C        13.7427523236       10.7535722865       15.2917827863
  C        22.5107762663        3.2440726137        5.7518225327
  C        23.2233234315        4.3485836233        5.0489003205
  C        24.2190237258        4.0669024117        4.1018667450
  C        24.8457281434        5.1052089678        3.4177106511
  C        24.4922613761        6.4474326339        3.6603010425
  C        23.5238265614        6.7206122273        4.6435465280
  C        22.8926502449        5.6841182524        5.3262745787
  C        25.1006358450        7.5531010254        2.8855959987
  C        25.0793673338        7.5460951645        1.4638616825
  C        24.3796488215        6.5475271555        0.7144403656
  C        38.3036405396       31.9309313101        5.8487183520
  C        37.5760476698       30.8421014452        5.1373924633
  C        36.6168699052       31.1465976299        4.1596092888
  C        36.0013538305       30.1265999511        3.4398176053
  C        36.3308023571       28.7778490004        3.6769274023
  C        37.2609435362       28.4807607015        4.6906099330
  C        37.8804517475       29.4994340679        5.4092760275
  C        35.7282167595       27.6865296121        2.8804522472
  C        35.7553535178       27.7022367550        1.4593054478
  C        36.4600961829       28.7045314503        0.7209090867
  C        25.7062490073        8.6156960060        0.7466985126
  C        25.6954763509        8.6276815484        3.5590685274
  C        38.3282931274       31.9625014078       10.1552668001
  C        37.6051509603       30.8895098109       10.8953486083
  C        36.6753882108       31.1985624101       11.8998586308
  C        36.0644255915       30.1801122780       12.6285149513
  C        36.3693453753       28.8276275017       12.3761447430
  C        37.2761550162       28.5284976675       11.3410228176
  C        37.8891590588       29.5434484497       10.6135036073
  C        35.7618673706       27.7291257599       13.1610423347
  C        35.7726295140       27.7240361697       14.5828665143
  C        36.4679148991       28.7152553437       15.3442413601
  C        46.1357229628       26.6209045929       15.2815023319
  C        46.0879109582       26.5801947836       12.4736081931
  C        22.4633719867        3.2566295445       10.2571326426
  C        23.1628167766        4.3654657170       10.9765353382
  C        24.1701042110        4.0791783225       11.9119220430
  C        24.8028753739        5.1089480407       12.6046295959
  C        24.4489022441        6.4554882975       12.3855644275
  C        23.4650315218        6.7350960518       11.4181461996
  C        22.8279092773        5.7055756178       10.7255531767
  C        25.0812822183        7.5528178471       13.1612503911
  C        25.0701674700        7.5454274700       14.5841922213
  C        24.3735093481        6.5482846317       15.3375533967
  C        26.6195354332       17.8591860390        5.7837669111
  C        25.3110222182       17.9065916377        5.0613025397
  C        25.0517344523       18.9049172129        4.1086856198
  C        23.8394760783       18.9255972278        3.4213094529
  C        22.8491998669       17.9521404683        3.6652984274
  C        23.1046698016       16.9769119903        4.6479802463
  C        24.3191497485       16.9501178680        5.3322183659
  C        21.5763557237       17.9392137803        2.9000446411
  C        21.5773582012       17.9196962604        1.4774724921
  C        22.7834517273       17.7958059846        0.7180005034
  C        34.4421995430       17.1923363139        5.9196877574
  C        35.7363503017       17.1366861586        5.1798430854
  C        35.9374355007       16.1682432940        4.1839645087
  C        37.1165052567       16.1539286486        3.4446878387
  C        38.1267223759       17.1058793384        3.6828622749
  C        37.9293433811       18.0532164953        4.7055234394
  C        36.7470292197       18.0737328528        5.4414386401
  C        39.3795507362       17.1129530385        2.8948152413
  C        39.3744189819       17.1254735409        1.4730637919
  C        38.1672142366       17.2483058762        0.7155270963
  C        20.3313427520       17.9389147350        0.7677410657
  C        20.3510068799       17.9413206619        3.5813290895
  C        34.4693067695       17.2435347866       10.1841312962
  C        35.7709489380       17.1623474159       10.9073307141
  C        35.9828406214       16.1756502920       11.8816425331
  C        37.1695065086       16.1517366523       12.6086845503
  C        38.1721614443       17.1137269891       12.3802961903
  C        37.9668189913       18.0753243812       11.3735848686
  C        36.7781817944       18.1043094638       10.6496519213
  C        39.4188661697       17.1276816911       13.1758530232
  C        39.3947565376       17.1335240642       14.5969273221
  C        38.1768941684       17.2505213337       15.3385910757
  C        35.1419047272       26.6458986306       15.2880888745
  C        35.1721915381       26.6575763557       12.4791720163
  C        26.5771609412       17.8284974091       10.3268404049
  C        25.2623736412       17.8730428257       11.0354606527
  C        24.9980069398       18.8796881105       11.9765176800
  C        23.7797133325       18.9067636020       12.6499827740
  C        22.7960437445       17.9275083038       12.4054356426
  C        23.0552239441       16.9453555891       11.4324236301
  C        24.2743110008       16.9160599861       10.7576070930
  C        21.5312860670       17.9112493143       13.1769771464
  C        21.5540555849       17.9038204865       14.5985080789
  C        22.7718478078       17.7881722661       15.3415639204
  C        14.0472734104       17.8293200901       10.2886206388
  C        15.3524335721       17.8878193644       11.0133544071
  C        15.6092139570       18.8924982966       11.9594372517
  C        16.8184654276       18.9149825702       12.6520038970
  C        17.8056994649       17.9356613284       12.4208430674
  C        17.5537720175       16.9552869166       11.4424223819
  C        16.3439485252       16.9282915014       10.7513749174
  C        19.0747457134       17.9198048536       13.1905833779
  C        19.0726149848       17.9184975368       14.6132360636
  C        17.8651328495       17.8209473817       15.3739506444
  C        46.8055653371       17.2181098827       10.1587165773
  C        45.5165545391       17.1546862408       10.9047067701
  C        45.3128118941       16.1753734465       11.8891603827
  C        44.1319932439       16.1551296291       12.6262607724
  C        43.1255712922       17.1144106763       12.4008977767
  C        43.3266059387       18.0733108873       11.3896655692
  C        44.5080015983       18.0973205512       10.6532536418
  C        41.8732689431       17.1235360920       13.1899619708
  C        41.8787836993       17.1189486495       14.6117549220
  C        43.0876745278       17.2109011910       15.3707530906
  C        20.3189344934       17.9298440280       15.3225566564
  C        20.2996527657       17.8994494551       12.5094159096
  C        46.7855578904       17.2301751895        5.8900574277
  C        45.4824955267       17.1213507337        5.1761300686
  C        45.2664181878       16.1220285554        4.2151968067
  C        44.0787740605       16.0927312384        3.4887963734
  C        43.0782673649       17.0596698796        3.7066275169
  C        43.2843181436       18.0279845201        4.7069490018
  C        44.4731264627       18.0637938422        5.4283793449
  C        41.8331427725       17.0811183617        2.9088897231
  C        41.8584279594       17.0961027499        1.4880822105
  C        43.0780724417       17.1976807881        0.7474438805
  C        46.1534788714       26.6373239281        0.7262593422
  C        46.1624296413       26.6560739040        3.5359050018
  C        14.0453163389       17.8318556971        5.7087286076
  C        15.3662315585       17.9069446420        5.0179154276
  C        15.6392071879       18.9237971907        4.0907837745
  C        16.8680861147       18.9624234920        3.4357849580
  C        17.8515538435       17.9833169830        3.6821479948
  C        17.5853364489       16.9952182866        4.6474501332
  C        16.3585077165       16.9561577536        5.3060240760
  C        19.1190291231       17.9600555756        2.9134549151
  C        19.0957624146       17.9380544780        1.4918532473
  C        17.8764154919       17.8296805958        0.7502167914
  C        28.7991985960       14.1191749100       10.3972328606
  C        28.1962379635       12.9423570507       11.0891387662
  C        28.9243820603       12.2019648654       12.0319586159
  C        28.3327191151       11.1188051548       12.6781770394
  C        26.9983792828       10.7528939960       12.4074586130
  C        26.2919849174       11.4752016879       11.4289501960
  C        26.8817056180       12.5569085818       10.7800493062
  C        26.3334905971        9.6667790818       13.1647550681
  C        26.3183105682        9.6904379275       14.5859401933
  C        26.8215105230       10.8014944637       15.3347741665
  C        32.1812204822       21.2412117805       10.1420499909
  C        32.7761012672       22.4053372906       10.8629441538
  C        32.0243969977       23.0875072418       11.8318863399
  C        32.5936823850       24.1272246822       12.5605647715
  C        33.9301242067       24.5123011068       12.3404690450
  C        34.6647925235       23.8485500838       11.3400823301
  C        34.0978092221       22.8032457165       10.6135209122
  C        34.5573408116       25.5889153473       13.1401375454
  C        34.5481023625       25.5623490229       14.5617136119
  C        34.0357101924       24.4496160709       15.3009988686
  C        25.7058744582        8.6119391572       15.3017257102
  C        25.6985705898        8.6163373340       12.4883532309
  C        32.1080286342       21.2351239200        5.8841516860
  C        32.6984351900       22.3887562928        5.1438922972
  C        31.9594364581       23.0591259826        4.1566873748
  C        32.5409087398       24.0853654775        3.4161897618
  C        33.8750266739       24.4734193323        3.6471037194
  C        34.5968564805       23.8188150738        4.6635102701
  C        34.0204309415       22.7854762602        5.3977255361
  C        34.5143219732       25.5530830845        2.8603155634
  C        34.5245683531       25.5446132255        1.4384808550
  C        34.0230444572       24.4418903989        0.6778837661
  C        40.6211102471       17.0986283797        0.7645467293
  C        40.6027726386       17.1075362714        3.5741540395
  C        28.7380888093       14.0650923241        5.8178580482
  C        28.1301635377       12.9180098359        5.0805950560
  C        28.8723059452       12.2074424730        4.1247222709
  C        28.2908018254       11.1523876285        3.4256012010
  C        26.9519138295       10.7794944232        3.6592247504
  C        26.2269288242       11.4759789140        4.6442397872
  C        26.8061654883       12.5329598530        5.3436671517
  C        26.3114771852        9.6893449823        2.8843351011
  C        26.3087441785        9.7020317148        1.4625781473
  C        26.8156809708       10.8081270168        0.7107898778
  C        18.1353999649        3.1810267272       10.3171574942
  C        17.4059823619        4.2782486690       11.0156561895
  C        16.3904459912        3.9998414637       11.9433624991
  C        15.7427379477        5.0398025869       12.6069068838
  C        16.0944218259        6.3835546725       12.3670405547
  C        17.0835316073        6.6530982782       11.4029978631
  C        17.7326198646        5.6157886414       10.7378990104
  C        15.4701939600        7.4912563033       13.1301501844
  C        15.4855966590        7.4906100166       14.5518648322
  C        16.1872279342        6.4970455659       15.3050347362
  C        42.9459797407       31.8595383902       10.0729113884
  C        43.6463241066       30.7719118797       10.8168743015
  C        44.5918828009       31.0932472781       11.8029228594
  C        45.1975921345       30.0876960005       12.5505667159
  C        44.8711387208       28.7346255274       12.3357392216
  C        43.9452792819       28.4202819047       11.3225569415
  C        43.3364586310       29.4254199463       10.5745196469
  C        45.4887674945       27.6553426586       13.1388988636
  C        45.4930270497       27.6810332342       14.5605850003
  C        44.8059547933       28.6890857462       15.3072111365
  C        14.8566739620        8.5631227200       15.2642431067
  C        14.8748846220        8.5630258730       12.4515742829
  C        42.9464905310       31.9615597728        5.8089840612
  C        43.6917685597       30.8854776225        5.0955653500
  C        44.6563102764       31.1914010701        4.1232040468
  C        45.2778510222       30.1718311699        3.4054818424
  C        44.9541570489       28.8214880733        3.6431454461
  C        44.0207412809       28.5238017645        4.6539906640
  C        43.3924703098       29.5405557467        5.3661752965
  C        45.5631799293       27.7241104629        2.8578660038
  C        45.5335364762       27.7174890418        1.4365653098
  C        44.8272318350       28.7077261025        0.6836042192
  C        35.1316660798       26.6357321464        0.7328898141
  C        35.1272353238       26.6103468509        3.5426226706
  C        18.1486550236        3.2470409900        5.7066819736
  C        17.4300603213        4.3438999550        4.9974356940
  C        16.4149660240        4.0526347406        4.0737390371
  C        15.7666609572        5.0832595787        3.3983427228
  C        16.1212496458        6.4284961801        3.6211500632
  C        17.1125082257        6.7118786974        4.5785296384
  C        17.7601761103        5.6829691065        5.2582992617
  C        15.4907766107        7.5241860805        2.8486924130
  C        15.4967087138        7.5075735615        1.4275602120
  C        16.1934956229        6.5058959871        0.6808497023
  H        10.6725072769       12.4659262007        3.9044899880
  H        11.6947380939       10.5511234990        2.6625784126
  H        15.3916176346       11.1684181119        4.7725066217
  H        14.3510955627       13.0712027297        6.0177546261
  H        13.3762362804       11.6311977214        1.2013523001
  H        50.3228272253       22.7485996309        3.9870916180
  H        49.3196793045       24.6230615094        2.6810277987
  H        45.6419326739       24.1608151701        4.8633576839
  H        46.6628312592       22.2899002948        6.1716220247
  H        47.6297554263       23.5758681708        1.2461874169
  H        14.8721358165        8.5882878827        4.6085772925
  H        50.2872522821       22.7029693781       12.0600394053
  H        49.2692652143       24.5758605100       13.3600829482
  H        45.6103329114       24.1088532711       11.1463806208
  H        46.6524330599       22.2535400940        9.8321632503
  H        47.6077630912       23.5518473096       14.7968283374
  H        40.6552770660       17.1128891882       11.4230637122
  H        48.6871189863       14.0948358208        7.8000399170
  H        10.6813690754       12.4667443480       12.0933225950
  H        11.6895958255       10.5248208695       13.2970997177
  H        15.3935254895       11.1588532752       11.2055690320
  H        14.3649967018       13.0872885642        9.9902350649
  H        13.3758721919       11.6221580099       14.7531308641
  H        47.9301181226       14.2184244235        9.7106324136
  H        47.7800836482       14.3737007426        6.4952768143
  H        49.0835099793       18.5522880189       10.8673415264
  H        10.4159923767       14.1343287621        7.9987213885
  H        24.4798175979        3.0279670280        3.9127434243
  H        25.6186907130        4.8864741695        2.6841556505
  H        23.2432559425        7.7539017247        4.8369469798
  H        22.1231497571        5.8856570028        6.0674919192
  H        23.8160731903        5.7906745315        1.2522319679
  H        36.3787702330       32.1898678118        3.9662699429
  H        35.2566190876       30.3650914307        2.6836865215
  H        37.5224272694       27.4416680724        4.8796180347
  H        38.6242311313       29.2791005480        6.1712852185
  H        37.0265789881       29.4539553564        1.2659741234
  H        25.7251810784        8.6107768670        4.6470462218
  H        36.4527190429       32.2428325094       12.1070087301
  H        35.3380820153       30.4247586297       13.4003892723
  H        37.5229137623       27.4881893571       11.1395274153
  H        38.6120994930       29.3179507009        9.8333582321
  H        37.0414925607       29.4725119538       14.8175833408
  H        46.1092051087       26.5874972950       11.3855699144
  H        44.6682620514       35.1161176291        7.8138805076
  H        24.4478138460        3.0407686151       12.0782188460
  H        25.5867289969        4.8787562764       13.3231186492
  H        23.1793334320        7.7696871204       11.2391578036
  H        22.0526034317        5.9198295139        9.9935257962
  H        23.8047848165        5.7924637330       14.8036961777
  H        44.9535675356       34.3901612304        9.6950668045
  H        44.9014445265       34.2066861463        6.4905823527
  H        40.6657908814       33.2089921795       10.8530891468
  H        23.1506742052        1.9577661338        8.0048275799
  H        25.8112781406       19.6617233428        3.9249330512
  H        23.6434756273       19.7061530905        2.6892085009
  H        22.3520670600       16.2162478437        4.8455378171
  H        24.5269000990       16.1831903907        6.0748183466
  H        23.7235789632       17.6748105817        1.2483687007
  H        35.1515163868       15.4397107857        3.9993448446
  H        37.2716526815       15.3966697763        2.6793310979
  H        38.7022138771       18.7956291125        4.8935452458
  H        36.5772357404       18.8200003168        6.2141537657
  H        37.2274277063       17.3732076860        1.2459184698
  H        20.3567706929       17.9797822831        4.6692560762
  H        35.1985107310       15.4454873742       12.0661602668
  H        37.3331868062       15.3844203329       13.3621441257
  H        38.7353385093       18.8241820731       11.1935913352
  H        36.5970492941       18.8640460805        9.8930653016
  H        37.2444900413       17.3761227144       14.7955669418
  H        35.1449788149       26.6817014515       11.3914323410
  H        28.4971958447       21.0818212942        7.8869668150
  H        25.7596379441       19.6345346107       12.1593566618
  H        23.5739385203       19.6922899647       13.3739739143
  H        22.3042365590       16.1823629420       11.2378067312
  H        24.4898971843       16.1466538677       10.0200323087
  H        23.7031770449       17.6618040817       14.7977417220
  H        29.0049861456       21.7257582797        9.7396314420
  H        29.1907762393       21.7244486349        6.5729835609
  H        32.0814413108       18.5752069145       10.9306561171
  H        27.4020103265       19.0737316345        8.0858640027
  H        14.8504960387       19.6514369882       12.1369486452
  H        17.0132743560       19.7005006057       13.3790270363
  H        18.3051924424       16.1910558821       11.2545430280
  H        16.1383839521       16.1579441411       10.0118978534
  H        16.9228177859       17.7059557881       14.8462051919
  H        46.0968815661       15.4438054161       12.0696300157
  H        43.9740408772       15.3879969612       13.3811204408
  H        42.5572348639       18.8217843809       11.2117550049
  H        44.6798577039       18.8517778984        9.8891393296
  H        44.0295556033       17.3249397052       14.8417909027
  H        20.2944888253       17.9277621363       11.4212260250
  H        46.0450145908       15.3834017607        4.0389045882
  H        43.9134890052       15.3178141126        2.7434472153
  H        42.5160942836       18.7783993414        4.8814310589
  H        44.6542484852       18.8305250284        6.1776185595
  H        44.0126450579       17.3003745911        1.2912480707
  H        46.1992043085       26.6825287426        4.6233549254
  H        52.7410817382       21.0625726398        8.1946659318
  H        14.8784795192       19.6776345863        3.9002697815
  H        17.0789838125       19.7540839398        2.7200276035
  H        18.3360312508       16.2328364506        4.8452731942
  H        16.1376184447       16.1805767690        6.0353314697
  H        16.9425517665       17.7214288144        1.2935981269
  H        52.3221261792       21.6731829016        6.2944217774
  H        52.0130010974       21.7018649144        9.4956599554
  H        49.0671755345       18.6076339087        5.2042862866
  H        13.2474803320       19.0164599718        7.9772824190
  H        29.9523837969       12.4880456337       12.2431792501
  H        28.8999620322       10.5429294496       13.4062705814
  H        25.2608277875       11.2037335422       11.2122498146
  H        26.3340111902       13.1339041158       10.0389944818
  H        27.1875344577       11.6703171716       14.7962705650
  H        30.9974902138       22.7772160351       12.0085959033
  H        32.0061015755       24.6557723823       13.3080423070
  H        35.6993628550       24.1368962427       11.1655605663
  H        34.6700328557       22.2647699111        9.8615612741
  H        33.6766334641       23.5817800848       14.7551855205
  H        25.7296828094        8.5995568693       11.4003016558
  H        30.9301968114       22.7583834949        3.9757420340
  H        31.9615645155       24.6049178949        2.6560440685
  H        35.6294913654       24.1082975489        4.8472378714
  H        34.5832226334       22.2565363369        6.1634129279
  H        33.6539266188       23.5680153149        1.2071772373
  H        40.5958175651       17.0700671404        4.6618132381
  H        32.5132329410       14.1479076458        8.2518385087
  H        29.9076336432       12.4912127650        3.9498799504
  H        28.8733600826       10.5980549618        2.6929159062
  H        25.1911328193       11.2003338436        4.8315621440
  H        26.2431244537       13.0870236434        6.0910612325
  H        27.1758775661       11.6820108575        1.2459109919
  H        33.3003541524       14.1962752850        6.4466179949
  H        33.4060660331       14.4088166828        9.6042710736
  H        32.1339431460       18.5507702498        5.1865277690
  H        30.2262034176       14.1935533553        8.0748634046
  H        16.1185312614        2.9633203792       12.1298862081
  H        14.9534152772        4.8203890763       13.3226977296
  H        17.3657182835        7.6859986540       11.2096658798
  H        18.5144177425        5.8184673103       10.0098038700
  H        16.7537692449        5.7396955368       14.7715346848
  H        44.8281529438       32.1403282381       11.9771285649
  H        45.9374776532       30.3414352753       13.3064963510
  H        43.6825316704       27.3782171356       11.1524865484
  H        42.5997898627       29.1900460143        9.8099174940
  H        44.2305840531       29.4368419534       14.7689096434
  H        14.8510060464        8.5461972327       11.3633559423
  H        44.8998198350       32.2340854677        3.9317290213
  H        46.0247075704       30.4130714077        2.6521981836
  H        43.7638500039       27.4840621249        4.8456043490
  H        42.6460724510       29.3177001000        6.1247025936
  H        44.2686861191       29.4705981521        1.2181705467
  H        35.0889096079       26.6220336572        4.6302419371
  H        36.6051343216       35.1341315413        8.1806328307
  H        16.1439159301        3.0130563599        3.9039823751
  H        14.9743891618        4.8564145720        2.6882005416
  H        17.3959113762        7.7473568805        4.7555100160
  H        18.5429382963        5.8934249613        5.9831806932
  H        16.7649494887        5.7556680022        1.2192823529
  H        36.2786380437       34.4825838013        6.2732704905
  H        36.3809242851       34.2092101034        9.4996669136
  H        40.5806272764       33.2028537523        5.1535305167
  H        17.4708678898        1.9475182562        7.9742799070
  H        29.2421439991       19.4826835860       12.5045158133
  H        29.9383074049       19.8297076961        3.6269811312
  H        30.5814770343       15.5561861072        3.8658518091
  H        31.2277696785       15.6295509051       12.4727444847
  H        27.9655666311       17.9129524647       14.3960962980
  H        29.2567723782       15.5739693362       14.4701109050
  H        31.4019465421       19.5639635534        1.1553400873
  H        32.3006957432       16.1132989849        1.7619881677
  H        28.4304004996       17.8060844415        3.0711829354
  H        18.8543344747        0.8693105634       12.3353399596
  H        40.5278264201       35.2290888046        3.9520192752
  H        42.3241417185       34.4188845016        3.5904856985
  H        22.0879948563        0.6919974210       12.3515873679
  H        11.5968612412       18.7130709638       12.3825232353
  H        52.2648423971       18.4310914200        3.6773332071
  H        49.2552858314       16.4771378668        3.5845671141
  H        10.1504193823       15.7982195909       12.2927792445
  H        50.8499629889       17.6923398662        3.9542964884
  H        10.0461144409       17.3944755913       12.0520212090
  H        20.2157156084        0.0024159276       12.0418511985
  H        39.1836046094       36.1244801871        3.6863981757
 Ni        30.7767118841       17.7224527909        2.7494616182
 Ni        30.9458694494       16.5950370828       -0.1651060982
 Ni        29.7183352321       18.6201942333       -0.0845213333
 Ni        30.0530814050       17.4496173914       13.1558497318
  O        10.6499767201       14.3650781663        5.4858326439
  O        12.6131822486       14.6575430781        6.5839235034
  O        49.1480309238       16.8459678557        7.9897746594
  O        50.3502242497       20.9359776448        5.6481272907
  O        48.3485504541       20.5933397849        6.6659589297
  O        11.0516790538       17.0539064494        6.5007031674
  O        50.3210365499       20.8816778863       10.4068224667
  O        48.3467585177       20.5867854320        9.3271320843
  O        49.5437587061       18.2484619835       10.0683034267
  O        12.3590897994       18.6245522506        7.9997435840
  O        48.6932782924       14.1485107217        6.7513143670
  O         8.2099143781       14.2102767624        9.3224964629
  O        10.7354105935       14.5067257261       10.6643636501
  O        12.5718528185       14.5828462475        9.3285009774
  O        22.8444607311        2.0429523200        5.4871472619
  O        21.6056624939        3.5923907899        6.5895856109
  O        42.0582807305       34.1374826822        7.9791001485
  O        37.9819647704       33.1391575370        5.5727926189
  O        39.2182964311       31.5766352154        6.6668483244
  O        20.3085322040        1.0398739643        6.5022179353
  O        38.0248597600       33.1862279006       10.4149832711
  O        39.2192943991       31.5839427711        9.3262599282
  O        40.6523243723       33.7693939995       10.0602649399
  O        18.2555226757        1.3763033785        7.9968567927
  O        44.6222241885       35.1005399123        6.7587194061
  O        24.2054416215        0.0000334093        9.3208166910
  O        22.7532733992        2.0582002181       10.5841634423
  O        21.6251167480        3.5968385247        9.3438588504
  O        27.4986332166       18.7450826957        5.4882995204
  O        26.7633253017       16.9337395350        6.6547844934
  O        30.6647782525       19.4088845702        8.0216375675
  O        33.5852123911       16.2778701379        5.6638982963
  O        34.2778210823       18.1675606401        6.7334388248
  O        29.5747710597       17.0650065790        6.5729135584
  O        33.6050966891       16.3282470145       10.4134559513
  O        34.3055422576       18.2437434429        9.4066169590
  O        31.6603799411       18.3196841765       10.0920977198
  O        30.3240696237       15.1598088088        8.0809397573
  O        28.5526707721       21.0346982561        6.8345673875
  O        28.5139244236       20.9566043168        9.4040231616
  O        27.4632843610       18.6793035992       10.6603846125
  O        26.6947388308       16.9303650029        9.4133125647
  O        13.1491283623       18.6929769407       10.5874796163
  O        13.9197972787       16.9162881797        9.4053333542
  O        50.5960916677       19.3502375037        8.0205693358
  O        47.6842680779       16.3266586363       10.4169996865
  O        46.9517036512       18.1756524099        9.3248643430
  O        11.0698332183       17.0155450246        9.4896977121
  O        47.6768590294       16.3353936354        5.6534859667
  O        46.9271827626       18.2356225502        6.6644807183
  O        49.5687059502       18.3177280085        5.9823106137
  O        10.3186678520       15.1001828446        7.9970695849
  O        52.6707670889       21.0278933653        9.2418363358
  O        12.1468185651       20.8911920370        6.6732295224
  O        13.1080183636       18.6137443980        5.3256362420
  O        13.9573706350       16.9871055904        6.6652758102
  O        29.9696406097       14.5022286465       10.7382244999
  O        28.0824463985       14.6573951311        9.4862924293
  O        32.1391536277       16.8561126893        8.0709044346
  O        30.9659109093       20.9540665072       10.4040789084
  O        32.9474374214       20.6023204149        9.3357290989
  O        29.5653760752       17.0802160292        9.5707638704
  O        30.8774621039       20.9523078399        5.6608020936
  O        32.8802482235       20.5876925736        6.6639584299
  O        31.6894977718       18.2485007244        5.9938287457
  O        28.2882952674       18.6776486190        8.0712373721
  O        32.4908219562       14.2137716877        9.3297014178
  O        32.4055205535       14.2125589889        6.8249925297
  O        29.9148481967       14.4380296113        5.4850447942
  O        28.0396099802       14.5873358821        6.7515358656
  O        17.8892273324        1.9666970971       10.6628142457
  O        18.9562989001        3.5271984485        9.4080067093
  O        39.1687128889       34.1389334048        7.9972545433
  O        43.2802361666       33.0590292397       10.3316968417
  O        42.0345859055       31.5064730945        9.2416497760
  O        20.3178295529        1.0368735715        9.4801639694
  O        43.2760885136       33.1826037285        5.5749291571
  O        42.0053028999       31.5841224749        6.5830172603
  O        40.5790933793       33.7750838994        5.9359757529
  O        22.3674005236        1.3847541322        7.9980451699
  O        36.6727560996       35.0998387747        9.2332955321
  O        16.4455480895        0.0644327932        6.6683607427
  O        17.9364948491        2.0434582902        5.3264156776
  O        18.9191300030        3.5931446896        6.6660058591
  O        29.9043950898       18.9731738381        4.0873924117
  O        29.9041033409       18.9733783204       11.9984998914
  O        31.2176549995       16.2644848399        4.0831990511
  O        31.2655319924       16.4863942186       12.0044578230
  O        31.9398728171       16.9254549550        1.3593307230
  O        28.7666696173       17.1409590901        2.4256598377
  O        30.1571809065       15.9073255996       14.3098859647
  O        30.5094115870       19.2737752168        1.4236943640
  O        28.8110481819       18.3900469057       14.3222696948
  O        39.4567339249       35.2438708053        4.0019946843
  O        19.1422182556        0.0048975018       11.9904876128
  O        41.9696102744       35.1726528983        4.0871761787
  O        21.6914300185       -0.0693496934       11.8959321940
  O        51.3650423587       18.6142829631        4.0054381742
  O        10.7511006184       18.7472392917       11.9049170749
  O        50.0797936901       16.4127888743        4.0916984239
  O         9.5245508096       16.4830435899       11.9912255913
 Zr         9.2967426410       16.0527161090        6.1824420558
 Zr        49.8362592986       16.0066385942        9.7464228532
 Zr        22.0731705101        0.0298008635        6.1890764000
 Zr        42.4610081539       35.1535317335        9.8009960923
 Zr        29.6153965544       19.0832267244        6.2583050953
 Zr        29.5870708899       19.1859241503        9.8363155050
 Zr        11.0379331898       19.0519302287        9.8277047213
 Zr        11.0436860124       19.1548122558        6.2511379146
 Zr        31.3524277671       16.1143254273        9.8577604047
 Zr        31.4016522226       16.0122175215        6.2711825993
 Zr        18.6011981765       -0.0012612828        9.7634370339
 Zr        18.5065380262       -0.0073327693        6.2139291833
 Zr        12.3019468134       16.3236557604        7.9903545618
 Zr        48.6161758323       18.8330271989        8.0103130646
 Zr        20.3154669848        2.4736673916        7.9909460552
 Zr        40.6436297579       32.6871569995        7.9783703135
 Zr        28.3454315060       16.3481947504        8.0830567881
 Zr        32.6361859205       18.8396909540        8.0461525365
  H        28.6330503849       17.5412445110        1.5236640699
