     569
 i =      150, E =     -4729.5165192703
  C        11.8585014326       14.0534096133        5.7415892841
  C        12.4559319762       12.8903531183        5.0233101455
  C        11.7044801631       12.1719773003        4.0810581804
  C        12.2808175705       11.1097444598        3.3887028780
  C        13.6211511676       10.7393994254        3.6169562600
  C        14.3540276243       11.4423583181        4.5910992625
  C        13.7811488351       12.5073063785        5.2826427615
  C        14.2607147599        9.6487705871        2.8435705343
  C        14.2560845520        9.6566997430        1.4218669429
  C        13.7430165585       10.7588383931        0.6679146876
  C        49.1264392344       21.2334893575        5.8798051207
  C        48.5495746859       22.4012102621        5.1526448277
  C        49.2996194140       23.0685804929        4.1716831559
  C        48.7326236196       24.1076036472        3.4384098113
  C        47.4020152498       24.5090893154        3.6669273644
  C        46.6710060987       23.8601104606        4.6803335299
  C        47.2335250036       22.8153134232        5.4097731137
  C        46.7718405945       25.5867808114        2.8696329583
  C        46.7610751700       25.5572755159        1.4478753205
  C        47.2610111605       24.4421895955        0.7043778580
  C        14.8599700471        8.5703187577        0.7086206240
  C        14.8914251101        8.5967738970        3.5202245844
  C        49.1129575074       21.2035456079       10.1454489977
  C        48.5276594489       22.3648921144       10.8724919853
  C        49.2669471912       23.0256882221       11.8653223389
  C        48.6906282182       24.0602575575       12.5967322883
  C        47.3601737180       24.4569410026       12.3585472574
  C        46.6396895369       23.8119372808       11.3351416396
  C        47.2132235008       22.7759991920       10.6034028175
  C        46.7217688173       25.5319094256       13.1495692537
  C        46.7335239683       25.5282423465       14.5712636722
  C        47.2488553346       24.4289632478       15.3276178796
  C        40.6263013896       17.1045646023       15.2873795258
  C        40.6224522259       17.0917502480       12.4786760779
  C        11.8827444732       14.0862788853       10.2855065848
  C        12.4717573071       12.9101300430       10.9894583414
  C        11.7143965177       12.1776266408       11.9162398881
  C        12.2807826079       11.0950738537       12.5846737144
  C        13.6192919534       10.7205895830       12.3522666568
  C        14.3569885225       11.4352990326       11.3905965273
  C        13.7917575544       12.5165539868       10.7178954082
  C        14.2529054927        9.6239309302       13.1227629593
  C        14.2519579597        9.6441320575       14.5446055545
  C        13.7423197253       10.7532002359       15.2916604854
  C        22.5119434643        3.2430743651        5.7522048918
  C        23.2287736313        4.3448237505        5.0494389198
  C        24.2223471109        4.0574704502        4.1018143213
  C        24.8543774699        5.0919780379        3.4169745061
  C        24.5084639860        6.4358954767        3.6600279619
  C        23.5420575289        6.7146908301        4.6436957585
  C        22.9053280618        5.6819119836        5.3269933989
  C        25.1211575803        7.5390577098        2.8852733067
  C        25.0932993577        7.5369931963        1.4637641213
  C        24.3884883348        6.5416922341        0.7152571256
  C        38.3035782261       31.9296377602        5.8475515410
  C        37.5767368690       30.8404788983        5.1349498767
  C        36.6172251915       31.1443112093        4.1570418066
  C        36.0019353767       30.1242220487        3.4367081226
  C        36.3312476866       28.7751160499        3.6728104792
  C        37.2619827572       28.4787706015        4.6864075458
  C        37.8813058272       29.4974602159        5.4056411050
  C        35.7291367932       27.6828092361        2.8759825222
  C        35.7582710168       27.6967619866        1.4545759336
  C        36.4601583484       28.7004646704        0.7154942596
  C        25.7184575888        8.6082124791        0.7473245320
  C        25.7249073548        8.6075982341        3.5589886652
  C        38.3272720049       31.9617203004       10.1547057453
  C        37.6028354363       30.8879518217       10.8925329185
  C        36.6725572917       31.1953058028       11.8972026656
  C        36.0612915665       30.1757374571       12.6241959183
  C        36.3662459307       28.8233990848       12.3705298716
  C        37.2728753947       28.5260519486       11.3346391657
  C        37.8860576738       29.5420466709       10.6085832782
  C        35.7610285379       27.7234625839       13.1556736836
  C        35.7747903680       27.7176008389       14.5776702206
  C        36.4676095987       28.7108077056       15.3387162759
  C        46.1355317035       26.6208767000       15.2813951294
  C        46.0877680985       26.5802256308       12.4735072755
  C        22.4631323815        3.2565702497       10.2569299294
  C        23.1622033490        4.3652422933       10.9767669728
  C        24.1697580795        4.0783410773       11.9116215633
  C        24.8024922154        5.1076530453       12.6048829693
  C        24.4479673235        6.4541497939       12.3868119673
  C        23.4636519944        6.7344220685       11.4200776725
  C        22.8266579081        5.7053169031       10.7268232165
  C        25.0812190109        7.5509025853       13.1622236507
  C        25.0733314488        7.5426661128       14.5851567172
  C        24.3775544722        6.5451237558       15.3384222524
  C        26.5403184284       17.8657856563        5.7933843771
  C        25.2338919718       17.9126266346        5.0789414134
  C        24.9789476229       18.9114489781        4.1259537836
  C        23.7758687980       18.9224641896        3.4262309001
  C        22.7943213125       17.9391539867        3.6608725390
  C        23.0422151923       16.9659276691        4.6467316571
  C        24.2486750401       16.9476997689        5.3428441199
  C        21.5332523147       17.9188586145        2.8836581625
  C        21.5473672436       17.9077450398        1.4620853137
  C        22.7597934995       17.7876089306        0.7124285873
  C        34.4823788310       17.2684607255        5.9141927942
  C        35.7685955160       17.2190804821        5.1668807273
  C        35.9642972156       16.2479987316        4.1720517840
  C        37.1408119726       16.2298521347        3.4303734866
  C        38.1527597929       17.1811834128        3.6630317459
  C        37.9594705596       18.1337058835        4.6817267930
  C        36.7796657867       18.1579404742        5.4215697864
  C        39.4011391039       17.1779403821        2.8692873650
  C        39.3858966712       17.1704873628        1.4478063487
  C        38.1743646843       17.2946174667        0.6979747299
  C        20.3068604314       17.9318208932        0.7447025472
  C        20.3053692795       17.9123658936        3.5570883991
  C        34.4372901639       17.2385150456       10.1769836567
  C        35.7338536948       17.1435777033       10.9052148358
  C        35.9280826725       16.1797668510       11.9056897188
  C        37.1193096967       16.1484712986       12.6262608027
  C        38.1435369437       17.0797346501       12.3657234717
  C        37.9537064384       18.0172130494       11.3331593127
  C        36.7621173731       18.0540049640       10.6159362565
  C        39.3959519144       17.0938935705       13.1525559666
  C        39.3836039960       17.1274630878       14.5734100144
  C        38.1729700015       17.2720708729       15.3215742037
  C        35.1492973365       26.6368651727       15.2835214049
  C        35.1710897592       26.6514373549       12.4744118244
  C        26.5701537359       17.8341090776       10.3257890935
  C        25.2594583858       17.8802681296       11.0298400764
  C        25.0044876109       18.8795618660       11.9817321593
  C        23.7870522615       18.9083037215       12.6549707439
  C        22.7967754118       17.9389435637       12.3987355131
  C        23.0473152845       16.9646572639       11.4156068114
  C        24.2654339128       16.9323758721       10.7411878083
  C        21.5305361401       17.9242795144       13.1647851285
  C        21.5454731760       17.9090052803       14.5858802392
  C        22.7582071251       17.7868145706       15.3359788046
  C        14.0465217931       17.8329299094       10.2826342525
  C        15.3554378381       17.8996716008       10.9964456085
  C        15.6177679457       18.9165575574       11.9272394340
  C        16.8300128042       18.9443311478       12.6132458390
  C        17.8109683133       17.9576972555       12.3895520293
  C        17.5550519944       16.9668206974       11.4236520913
  C        16.3425083358       16.9349801535       10.7386982085
  C        19.0761393407       17.9396611470       13.1624592685
  C        19.0639136261       17.9300800301       14.5840112218
  C        17.8498179584       17.8322906273       15.3339656623
  C        46.8011973260       17.2114040193       10.1499966621
  C        45.5021762805       17.1315758505       10.8767387224
  C        45.2947809999       16.1441699626       11.8522161441
  C        44.1083245295       16.1137177395       12.5797214512
  C        43.0999817465       17.0705632765       12.3533864820
  C        43.3013889520       18.0326918131       11.3453616930
  C        44.4888701239       18.0672931638       10.6188581211
  C        41.8510092381       17.0826687010       13.1483379147
  C        41.8678592143       17.0990055437       14.5699727726
  C        43.0831045814       17.1955062950       15.3182612239
  C        20.3051950924       17.9331356416       15.3008241970
  C        20.3038537499       17.9189478212       12.4887025406
  C        46.7887130851       17.2354946227        5.8828604030
  C        45.4936493876       17.1411063496        5.1527749736
  C        45.2789370407       16.1478160341        4.1851675914
  C        44.0972383330       16.1295496227        3.4485544444
  C        43.1011336587       17.1021488874        3.6622553005
  C        43.3081579221       18.0679048776        4.6652040272
  C        44.4903904237       18.0921271755        5.3973523072
  C        41.8543518269       17.1268580812        2.8673909555
  C        41.8696271086       17.1202892841        1.4462405820
  C        43.0840945656       17.2020809009        0.6950582685
  C        46.1531862241       26.6372255686        0.7261389218
  C        46.1618144545       26.6558384010        3.5357759073
  C        14.0366592614       17.8258933029        5.7050287491
  C        15.3472880501       17.8894495622        4.9997863336
  C        15.6181083814       18.9127865057        4.0799172185
  C        16.8402301651       18.9461581369        3.4139983701
  C        17.8139794189       17.9549514628        3.6450099610
  C        17.5482220610       16.9560855828        4.5983531717
  C        16.3284542138       16.9225323098        5.2681114408
  C        19.0804476204       17.9356434657        2.8799142884
  C        19.0662823817       17.9272079850        1.4592879489
  C        17.8510917436       17.8303363334        0.7101336167
  C        28.8142639300       14.0802747766       10.3635040653
  C        28.2070509249       12.9126508546       11.0580116307
  C        28.9295337587       12.1888375766       12.0186579034
  C        28.3333919361       11.1172955701       12.6787337278
  C        27.0017928275       10.7444005855       12.4026514902
  C        26.3019850524       11.4497823799       11.4068102508
  C        26.8942546950       12.5223835070       10.7460481440
  C        26.3347451000        9.6639106163       13.1648905505
  C        26.3215053520        9.6879047129       14.5862876208
  C        26.8215331364       10.8000604722       15.3353404094
  C        32.1738097253       21.2369550343       10.1398502306
  C        32.7710490151       22.3959878024       10.8648390996
  C        32.0283612323       23.0668011238       11.8486601032
  C        32.6008217735       24.1065402970       12.5748794600
  C        33.9312230608       24.5033421670       12.3383989782
  C        34.6563888091       23.8499955547       11.3240845089
  C        34.0867929436       22.8048523098       10.5996773247
  C        34.5615381725       25.5798013423       13.1360289668
  C        34.5596036593       25.5505574268       14.5577789207
  C        34.0599450890       24.4324192106       15.2972363621
  C        25.7118754745        8.6078392930       15.3023118042
  C        25.6980632763        8.6139601418       12.4890634804
  C        32.1103330063       21.2330982133        5.8756042482
  C        32.6996190565       22.3786652345        5.1294917689
  C        31.9723024625       23.0236897294        4.1170300177
  C        32.5540628144       24.0542445579        3.3831426867
  C        33.8760620688       24.4675569506        3.6410727483
  C        34.5853770877       23.8343435546        4.6800147463
  C        34.0090825047       22.7993322046        5.4108521481
  C        34.5178901913       25.5466435724        2.8560727255
  C        34.5364219359       25.5336315604        1.4340221331
  C        34.0480356085       24.4245672405        0.6740637131
  C        40.6269731250       17.1211503193        0.7316975148
  C        40.6284463607       17.1728822371        3.5403102799
  C        28.7559890177       14.0435055241        5.8211634368
  C        28.1553933190       12.8853834343        5.1016855548
  C        28.8839129811       12.2167625422        4.1053265607
  C        28.3056493149       11.1636952334        3.4018474335
  C        26.9828942617       10.7543703652        3.6667169682
  C        26.2746055712       11.4080754876        4.6931893266
  C        26.8506344939       12.4612615322        5.4000241753
  C        26.3388630079        9.6719344392        2.8858161391
  C        26.3245886025        9.6927489660        1.4635244294
  C        26.8208494341       10.8037716636        0.7116463196
  C        18.1354150492        3.1808654136       10.3171128939
  C        17.4058484805        4.2780492096       11.0156703477
  C        16.3902801199        3.9994458775       11.9432643603
  C        15.7423350856        5.0392646230       12.6068099375
  C        16.0939059291        6.3830470885       12.3670717047
  C        17.0830803772        6.6528133528       11.4031651007
  C        17.7323911966        5.6156279417       10.7380812170
  C        15.4694648427        7.4906543862       13.1301395560
  C        15.4849663464        7.4901338042       14.5518521988
  C        16.1866071516        6.4965848345       15.3050299721
  C        42.9458655413       31.8595209880       10.0729027758
  C        43.6462459479       30.7718980543       10.8168205391
  C        44.5920188491       31.0932187673       11.8026617018
  C        45.1977171114       30.0876659454       12.5503052925
  C        44.8710148840       28.7346387583       12.3356414619
  C        43.9448971532       28.4202914444       11.3227107261
  C        43.3360849472       29.4254429696       10.5746900377
  C        45.4886316625       27.6553584245       13.1388064440
  C        45.4928466463       27.6810134776       14.5604879988
  C        44.8057477450       28.6890612440       15.3070899743
  C        14.8560573201        8.5626844186       15.2641841122
  C        14.8739757815        8.5622768780       12.4515277841
  C        42.9463298846       31.9613582308        5.8089383248
  C        43.6914612548       30.8852448344        5.0954383237
  C        44.6562618601       31.1911505145        4.1233382844
  C        45.2777091237       30.1715585518        3.4055766463
  C        44.9536271530       28.8212717119        3.6429708183
  C        44.0198589455       28.5236003833        4.6534741249
  C        43.3916763540       29.5403711528        5.3657013946
  C        45.5626774268       27.7239058000        2.8577151681
  C        45.5331784031       27.7173543087        1.4364227045
  C        44.8269332102       28.7076424347        0.6834817337
  C        35.1392916913       26.6271334767        0.7284398247
  C        35.1261932539       26.6074733559        3.5379535503
  C        18.1486880218        3.2469109693        5.7066645996
  C        17.4299214374        4.3437694821        4.9974320818
  C        16.4146931981        4.0524010174        4.0739268561
  C        15.7662725273        5.0829622639        3.3985157906
  C        16.1208852493        6.4282183582        3.6211452816
  C        17.1122775637        6.7116966506        4.5783596463
  C        17.7600608460        5.6828520380        5.2581379133
  C        15.4903360995        7.5238750796        2.8486676735
  C        15.4962224884        7.5072421017        1.4275283414
  C        16.1929361822        6.5054962020        0.6808457344
  H        10.6725286760       12.4665083472        3.9036411289
  H        11.6946394171       10.5516280328        2.6617928756
  H        15.3908118703       11.1671895793        4.7733767766
  H        14.3502760627       13.0699190843        6.0188052201
  H        13.3760942038       11.6310267394        1.2011781321
  H        50.3223726397       22.7486446832        3.9870460000
  H        49.3190683749       24.6229364298        2.6808502834
  H        45.6414300673       24.1606964115        4.8633415802
  H        46.6624686322       22.2900122496        6.1717928882
  H        47.6293196732       23.5757009358        1.2460390080
  H        14.8716319146        8.5879371814        4.6085289026
  H        50.2870051544       22.7028752523       12.0601939254
  H        49.2689959398       24.5757889816       13.3602004437
  H        45.6102159480       24.1090259455       11.1462105942
  H        46.6522701463       22.2537069487        9.8320255040
  H        47.6074959832       23.5517921203       14.7967142334
  H        40.6205699970       17.0458028165       11.3913042380
  H        48.6870541489       14.0948971180        7.8001439077
  H        10.6811683026       12.4672837210       12.0941154783
  H        11.6890630510       10.5252047920       13.2978519958
  H        15.3921185000       11.1566870619       11.2040723374
  H        14.3638747409       13.0852811755        9.9886908598
  H        13.3754741774       11.6217950212       14.7530090584
  H        47.9302521701       14.2181754875        9.7107516601
  H        47.7798716746       14.3729312490        6.4952646825
  H        49.0809879237       18.5512867087       10.8666675913
  H        10.4154954083       14.1342136876        7.9988392722
  H        24.4771040849        3.0170223080        3.9129169139
  H        25.6255391737        4.8689278818        2.6828137418
  H        23.2674949831        7.7496377346        4.8368334669
  H        22.1373307733        5.8876327347        6.0686588768
  H        23.8257537940        5.7847166353        1.2537598865
  H        36.3782520898       32.1874305598        3.9638664855
  H        35.2570998872       30.3632330228        2.6808200682
  H        37.5241065337       27.4397830069        4.8751889400
  H        38.6251630848       29.2764802721        6.1674185664
  H        37.0242369934       29.4520977577        1.2600433959
  H        25.7627433666        8.5842899204        4.6465691355
  H        36.4498436209       32.2392229096       12.1061496427
  H        35.3349623494       30.4195075285       13.3963669953
  H        37.5197480529       27.4860549315       11.1316646726
  H        38.6089966944       29.3173270055        9.8282133936
  H        37.0385796854       29.4699002418       14.8118984328
  H        46.1090258321       26.5875542463       11.3854685241
  H        44.6681766418       35.1159706237        7.8139799602
  H        24.4476731600        3.0398326299       12.0769025074
  H        25.5867747499        4.8772417229       13.3228236943
  H        23.1775681662        7.7690987578       11.2422249828
  H        22.0510210346        5.9197043861        9.9951817518
  H        23.8060662564        5.7912277645       14.8048203915
  H        44.9534528432       34.3901683107        9.6951115671
  H        44.9014240277       34.2065436269        6.4906875183
  H        40.6651026308       33.2084866112       10.8528569875
  H        23.1507659483        1.9573386180        8.0051348956
  H        25.7354056644       19.6717160388        3.9468764535
  H        23.5806494043       19.6994430529        2.6903279032
  H        22.2923823312       16.2000522121        4.8339132983
  H        24.4568856475       16.1802734512        6.0844851331
  H        23.6967082363       17.6630222741        1.2479082052
  H        35.1774168782       15.5208380185        3.9872473876
  H        37.2920559331       15.4701924858        2.6667024870
  H        38.7331843473       18.8767357851        4.8636734222
  H        36.6130522361       18.9077282759        6.1915718118
  H        37.2405469602       17.4407589285        1.2332991282
  H        20.3031514101       17.9436594356        4.6451280053
  H        35.1279267279       15.4745239457       12.1181834343
  H        37.2684628655       15.3984740794       13.3998965374
  H        38.7377341006       18.7430455671       11.1277371355
  H        36.5948888338       18.7961925763        9.8391827861
  H        37.2378341116       17.3997181597       14.7839000736
  H        35.1394389371       26.6776460801       11.3868181204
  H        28.5000351379       21.0745590159        7.9703646286
  H        25.7720262130       19.6257272299       12.1748943952
  H        23.5874335662       19.6867034013       13.3881858927
  H        22.2900912124       16.2098711052       11.2137560406
  H        24.4746651743       16.1678144253        9.9970495904
  H        23.6941789089       17.6606591042       14.8000566247
  H        29.0167037717       21.7170075281        9.6604606228
  H        29.0892719599       21.7989156879        6.5598009295
  H        32.0389593411       18.5419808286       10.9353717022
  H        27.3745241480       18.9934376379        7.9733969599
  H        14.8605233206       19.6782962543       12.0987179944
  H        17.0311625993       19.7364141653       13.3313694250
  H        18.3040455546       16.1984293248       11.2434230474
  H        16.1301592899       16.1570128284       10.0092662945
  H        16.9112487462       17.7262950986       14.7979185647
  H        46.0818655096       15.4166996030       12.0360074478
  H        43.9493569861       15.3433656212       13.3311228713
  H        42.5292801950       18.7778609458       11.1654112368
  H        44.6625265045       18.8265333220        9.8598868174
  H        44.0216020434       17.2957589196       14.7806914949
  H        20.3053122176       17.9520984671       11.4006637675
  H        46.0529225920       15.4031477050        4.0139368762
  H        43.9316818766       15.3562438279        2.7016334180
  H        42.5445512075       18.8239927630        4.8353617851
  H        44.6709399454       18.8554480468        6.1501720659
  H        44.0235028251       17.3066765049        1.2302121397
  H        46.1984267055       26.6822580569        4.6232308023
  H        52.7409963198       21.0624904198        8.1945749125
  H        14.8620815999       19.6752902663        3.9064374498
  H        17.0549541937       19.7428665202        2.7050670467
  H        18.2941987585       16.1849031811        4.7788119490
  H        16.1041692279       16.1421559539        5.9911632757
  H        16.9134101627       17.7227599977        1.2472105904
  H        52.3217502288       21.6734456690        6.2949977076
  H        52.0131304984       21.7022722982        9.4954310201
  H        49.0678739337       18.6086602278        5.2041370201
  H        13.2468479033       19.0165660081        7.9754601569
  H        29.9542054387       12.4818245865       12.2365877493
  H        28.8954494807       10.5559427787       13.4219232503
  H        25.2731884523       11.1729002666       11.1860384445
  H        26.3485320972       13.0872666922        9.9944913089
  H        27.1802363739       11.6734172417       14.7990030049
  H        31.0069660254       22.7474344201       12.0406122261
  H        32.0200418969       24.6250838452       13.3345125271
  H        35.6864126410       24.1462943639       11.1365457947
  H        34.6527201510       22.2754832677        9.8366602006
  H        33.7100617492       23.5596938088       14.7532365208
  H        25.7287433096        8.5965226161       11.4010292360
  H        30.9572556162       22.6938698303        3.9080487133
  H        31.9843357571       24.5551137609        2.6035746810
  H        35.6089588555       24.1416036312        4.8840961910
  H        34.5624684873       22.2885442532        6.1953963415
  H        33.6891107009       23.5453723424        1.2016380718
  H        40.6284660453       17.1488232746        4.6283412541
  H        32.5441371668       14.1317814782        8.2655514407
  H        29.9006248261       12.5411251990        3.8955554024
  H        28.8778944086       10.6425743832        2.6375159775
  H        25.2516821142       11.1041738689        4.9055693526
  H        26.2967704524       12.9842830353        6.1759005888
  H        27.1774268802       11.6803200063        1.2448773834
  H        33.3965727022       14.1853662413        6.4036714719
  H        33.4075899840       14.4136437395        9.6036568709
  H        32.0245639673       18.4496516968        5.0989004206
  H        30.1936312039       14.2071285670        7.9826562298
  H        16.1184993110        2.9628683844       12.1296751937
  H        14.9529782195        4.8196768933       13.3225114852
  H        17.3651497755        7.6857714455       11.2099771317
  H        18.5142375665        5.8183936921       10.0100593235
  H        16.7530558092        5.7391679852       14.7715232884
  H        44.8284706654       32.1402851725       11.9766889785
  H        45.9377429541       30.3413584926       13.3061125494
  H        43.6818717379       27.3782592192       11.1528786480
  H        42.5991860113       29.1901035492        9.8103015949
  H        44.2303664285       29.4367942764       14.7687668221
  H        14.8499401614        8.5452887370       11.3633169714
  H        44.9000017492       32.2338183099        3.9320797233
  H        46.0247626853       30.4127317007        2.6524707156
  H        43.7625739865       27.4838984198        4.8447491091
  H        42.6449514479       29.3175682329        6.1239216170
  H        44.2683300671       29.4704576209        1.2180660121
  H        35.0829198686       26.6223551080        4.6253649904
  H        36.6050666891       35.1340501387        8.1806088929
  H        16.1436446301        3.0127949179        3.9043086475
  H        14.9738991736        4.8560154296        2.6885142098
  H        17.3956959334        7.7471963954        4.7551961743
  H        18.5429356265        5.8933257215        5.9828949313
  H        16.7643336600        5.7552406878        1.2193028717
  H        36.2788254055       34.4822983246        6.2733972554
  H        36.3809556183       34.2091986608        9.4998126669
  H        40.5800851768       33.2026263534        5.1536321648
  H        17.4710022767        1.9476598015        7.9741704160
  H        29.2422166616       19.3840750323       12.5012671258
  H        28.7520364349       18.9888683898        3.7454079895
  H        31.6570188264       15.9094968742        3.4713406107
  H        31.3275502956       15.6025737513       12.4623015336
  H        27.9666166369       17.9535312608       14.1371196934
  H        29.4391109107       15.4870289305       14.3992320872
  H        32.6264301201       17.1989234072        1.3025045349
  H        18.8528384341        0.8687713475       12.3353272013
  H        40.5280574285       35.2293013953        3.9521552579
  H        42.3234718565       34.4185296212        3.5908406946
  H        22.0878287337        0.6925387417       12.3514641607
  H        11.5968097609       18.7129495349       12.3828260903
  H        52.2644791278       18.4316108306        3.6773348424
  H        49.2557522228       16.4765461565        3.5842490937
  H        10.1507632962       15.7982756622       12.2927230234
  H        50.8498089901       17.6923136064        3.9541347701
  H        10.0461153803       17.3946542683       12.0520307689
  H        20.2139271912        0.0021623285       12.0421486558
  H        39.1835315022       36.1242674222        3.6861850106
 Ni        30.5220333574       17.8092168718        2.5796692351
 Ni        30.9834476904       16.3852679677       -0.0829122660
 Ni        29.5094764873       18.1574399962        0.0874584671
 Ni        30.0562588626       17.3588374821       13.0750793419
  O        10.6498090999       14.3650638762        5.4858092389
  O        12.6130401828       14.6573461673        6.5838953003
  O        49.1479067753       16.8459557094        7.9899194156
  O        50.3500598041       20.9363596753        5.6483394341
  O        48.3484872533       20.5933377619        6.6660309832
  O        11.0512242272       17.0539134069        6.5005741444
  O        50.3208536441       20.8817563652       10.4068734373
  O        48.3466877379       20.5867800910        9.3271560549
  O        49.5433937004       18.2484822846       10.0684839372
  O        12.3585588805       18.6246602001        7.9998531126
  O        48.6932514972       14.1485489088        6.7513414898
  O         8.2099640872       14.2102774049        9.3224307349
  O        10.7353289479       14.5067015032       10.6643919868
  O        12.5717419458       14.5826452656        9.3285913242
  O        22.8443383273        2.0417682667        5.4873746585
  O        21.6064109675        3.5926912905        6.5889176386
  O        42.0580643328       34.1372847142        7.9791795126
  O        37.9819186904       33.1382145770        5.5725075720
  O        39.2180739793       31.5762301471        6.6664879981
  O        20.3085008877        1.0399486386        6.5021082607
  O        38.0245358418       33.1856553804       10.4150292006
  O        39.2192426032       31.5838749325        9.3262387876
  O        40.6522274242       33.7693132566       10.0603301523
  O        18.2558821873        1.3767621510        7.9968232845
  O        44.6222192101       35.1004138090        6.7587859031
  O        24.2053605545        0.0000589724        9.3208606050
  O        22.7534346525        2.0584101036       10.5841075359
  O        21.6250054061        3.5968174965        9.3436161325
  O        27.4164729555       18.7544926585        5.4954680817
  O        26.6943714858       16.9270620524        6.6569608617
  O        30.6287473283       19.3467812204        7.9974023068
  O        33.6320242676       16.3435917700        5.6644639952
  O        34.3093769047       18.2364293523        6.7333127099
  O        29.4484466376       16.9937802746        6.3305367693
  O        33.5554433551       16.3352896005       10.4010892367
  O        34.2947747190       18.2391329386        9.3962844403
  O        31.6471985487       18.3127990993       10.0742912272
  O        30.3203756822       15.1696067613        8.0086483504
  O        28.5442639150       21.0420620218        6.8406991140
  O        28.5134742135       20.9577908597        9.3172232268
  O        27.4600907925       18.6808189700       10.6488553491
  O        26.6915083419       16.9268611504        9.4144782345
  O        13.1476420324       18.6936644674       10.5864503460
  O        13.9182508734       16.9158822031        9.4041046662
  O        50.5958746227       19.3504268998        8.0212022371
  O        47.6838842157       16.3262968952       10.4164409571
  O        46.9513434397       18.1754758974        9.3245076314
  O        11.0688454663       17.0160800089        9.4897703556
  O        47.6764479088       16.3354965674        5.6528085853
  O        46.9283099915       18.2356498325        6.6644773891
  O        49.5685700076       18.3177847170        5.9823421669
  O        10.3184109762       15.1001040456        7.9971342085
  O        52.6707203046       21.0280406855        9.2418437997
  O        12.1467966571       20.8913940742        6.6732974607
  O        13.1036828057       18.6143288116        5.3264887784
  O        13.9543961597       16.9859531344        6.6658425869
  O        30.0007459690       14.4339123182       10.6562565633
  O        28.0756714632       14.6565744823        9.4837485731
  O        32.0826152076       16.8699619770        8.0037099559
  O        30.9562304433       20.9501311096       10.3948515832
  O        32.9409107997       20.6001194945        9.3309978682
  O        29.5579926793       17.0723049558        9.4876153310
  O        30.8745272159       20.9541652456        5.6578502974
  O        32.8752582940       20.5941551108        6.6671401449
  O        31.6389920296       18.3095361406        5.9826035889
  O        28.2697568132       18.6179511362        7.9977943866
  O        32.4984645423       14.2082326980        9.3130679219
  O        32.4869640997       14.2146329424        6.7439202804
  O        29.9198356990       14.4314010806        5.4838912893
  O        28.0377969656       14.5870468174        6.7447753454
  O        17.8892511356        1.9666112828       10.6628170819
  O        18.9563105866        3.5272089905        9.4080345595
  O        39.1686130163       34.1388478408        7.9972096853
  O        43.2802342301       33.0589992876       10.3317065648
  O        42.0345564798       31.5064562575        9.2416115767
  O        20.3176366466        1.0366883922        9.4801702339
  O        43.2760114509       33.1823780306        5.5748815088
  O        42.0052222730       31.5840596469        6.5830481477
  O        40.5790567899       33.7750823100        5.9359322913
  O        22.3672642921        1.3846523198        7.9981029813
  O        36.6727875596       35.0998171779        9.2332635503
  O        16.4456010125        0.0643589838        6.6683206015
  O        17.9364418383        2.0433855755        5.3264435662
  O        18.9192071620        3.5931915016        6.6659229108
  O        29.6539745044       18.8370685916        4.0812089262
  O        29.8632102364       18.9041352452       11.9170594244
  O        31.2602517646       16.4801497098        4.1591154060
  O        31.2966951064       16.4178422540       11.9223756347
  O        31.8580825916       16.6342456709        1.5079409667
  O        30.3199277201       15.8808599367       14.2511509786
  O        28.8623413698       18.3120922391       14.2604291994
  O        39.4568796937       35.2438112554        4.0019858867
  O        19.1408669800        0.0043580345       11.9905816474
  O        41.9697569887       35.1729053976        4.0872062336
  O        21.6914391553       -0.0689348888       11.8959095192
  O        51.3646143940       18.6143866953        4.0053373980
  O        10.7511122196       18.7472175936       11.9051446395
  O        50.0801456612       16.4127860751        4.0916661219
  O         9.5248040285       16.4830258160       11.9912329085
 Zr         9.2961670160       16.0526989106        6.1823570601
 Zr        49.8359320903       16.0068963012        9.7467745766
 Zr        22.0730489212        0.0293025704        6.1892931254
 Zr        42.4607765849       35.1532151781        9.8011177806
 Zr        29.5905726304       19.2062652629        6.2095588514
 Zr        29.5716634813       19.1603945877        9.8285351812
 Zr        11.0370897895       19.0525634428        9.8280405992
 Zr        11.0426424108       19.1552001651        6.2515815636
 Zr        31.3439468473       16.0994428055        9.8252442980
 Zr        31.4934622634       15.9809590151        6.1997072202
 Zr        18.6009695626       -0.0018064281        9.7632716140
 Zr        18.5064231490       -0.0078054805        6.2137837679
 Zr        12.3000250378       16.3232351877        7.9908674092
 Zr        48.6159131186       18.8330605737        8.0107565376
 Zr        20.3154190441        2.4733086232        7.9907528034
 Zr        40.6431322514       32.6865838239        7.9783620078
 Zr        28.2807593524       16.3033955154        8.1006701888
 Zr        32.6277393936       18.8507530269        8.0247265989
  H        29.4324217592       17.2574510447        1.3517635981
  H        29.0667341047       16.7179710526        5.4737945613
  H        30.3304318034       18.8065861625        1.3119454313
