     566
 i =      183, E =     -4712.2424581512
  C        11.8586783127       14.0533001960        5.7415191300
  C        12.4560528906       12.8903730264        5.0233265228
  C        11.7045034659       12.1715315991        4.0814531878
  C        12.2809236903       11.1092957702        3.3892085422
  C        13.6214519820       10.7393299115        3.6171133204
  C        14.3544641112       11.4428192993        4.5907822412
  C        13.7815278687       12.5077931905        5.2822445870
  C        14.2609805414        9.6486434372        2.8437228340
  C        14.2560142538        9.6564684207        1.4220180130
  C        13.7428774152       10.7586031468        0.6681127830
  C        49.1266042119       21.2334275370        5.8797343396
  C        48.5497429617       22.4013119105        5.1527862006
  C        49.2996582200       23.0683997635        4.1715179792
  C        48.7327297408       24.1075066189        3.4382910730
  C        47.4023064698       24.5094482259        3.6671360530
  C        46.6715550547       23.8609251706        4.6810493583
  C        47.2339800828       22.8160265700        5.4104289013
  C        46.7720532732       25.5870799532        2.8697989722
  C        46.7610395410       25.5573584339        1.4480352779
  C        47.2609962056       24.4422747088        0.7045390157
  C        14.8599078746        8.5701214239        0.7087207618
  C        14.8920093330        8.5968056814        3.5203468948
  C        49.1130075034       21.2034304419       10.1452902316
  C        48.5276817310       22.3648979717       10.8722350883
  C        49.2666208951       23.0249633542       11.8658199314
  C        48.6903552988       24.0595372576       12.5972927140
  C        47.3602362361       24.4570166095       12.3585152901
  C        46.6402263005       23.8128725755       11.3341905976
  C        47.2137108582       22.7769732008       10.6023482573
  C        46.7217370336       25.5318960830       13.1496071797
  C        46.7333358969       25.5281388253       14.5713252156
  C        47.2487542887       24.4289574852       15.3277726513
  C        40.6109981786       17.0758133340       15.3195542513
  C        40.6297179854       17.1293953305       12.5084793971
  C        11.8826923004       14.0862408149       10.2856220056
  C        12.4717807749       12.9104187258       10.9897472746
  C        11.7144455148       12.1775424801       11.9163087873
  C        12.2810120609       11.0950644933       12.5846816400
  C        13.6196762451       10.7208832600       12.3524706374
  C        14.3574014680       11.4360610334       11.3911592857
  C        13.7920089571       12.5172469281       10.7184821643
  C        14.2533135209        9.6241544326       13.1228962156
  C        14.2519720637        9.6440806443       14.5447449947
  C        13.7422197357       10.7530513266       15.2918618581
  C        22.5240700477        3.2506231670        5.7541185769
  C        23.2616587542        4.3541452023        5.0645197785
  C        24.2735802924        4.0666084062        4.1348654072
  C        24.9255436500        5.0985149228        3.4614858179
  C        24.5861762663        6.4475083601        3.6921667281
  C        23.6027022527        6.7266091322        4.6602847469
  C        22.9463230917        5.6960936712        5.3332282830
  C        25.2112164379        7.5476629319        2.9114210911
  C        25.1741668727        7.5388955883        1.4877459648
  C        24.4692784169        6.5378694900        0.7461361805
  C        38.2992778365       31.9259467225        5.8493059311
  C        37.5613046999       30.8360488070        5.1436739038
  C        36.5958271423       31.1418651208        4.1716564295
  C        35.9674048477       30.1239524367        3.4586139946
  C        36.2879637205       28.7719634471        3.6929598981
  C        37.2238155635       28.4735941660        4.7017817563
  C        37.8561631612       29.4905441170        5.4144213415
  C        35.6756994447       27.6839162867        2.8934205369
  C        35.7084793586       27.7016130524        1.4711939592
  C        36.4227092742       28.7013327846        0.7383897137
  C        25.7880200480        8.6097409689        0.7587698825
  C        25.8284878347        8.6197487001        3.5725149893
  C        38.3301375564       31.9617458207       10.1586095353
  C        37.6115687644       30.8886888119       10.9050246001
  C        36.6789721707       31.1979608752       11.9070874718
  C        36.0679335240       30.1804316169       12.6375766691
  C        36.3746646778       28.8271793064       12.3902592391
  C        37.2876151301       28.5279034587       11.3602765724
  C        37.9004925895       29.5419527577       10.6308586493
  C        35.7583257721       27.7292355675       13.1705828602
  C        35.7506804785       27.7249527805       14.5928347371
  C        36.4419028619       28.7131449922       15.3618088904
  C        46.1352454747       26.6207370814       15.2814669410
  C        46.0878560218       26.5803359021       12.4735759975
  C        22.4661247243        3.2590861931       10.2631424036
  C        23.1683811110        4.3655078801       10.9876513639
  C        24.1755121591        4.0747356314       11.9226763396
  C        24.8137436369        5.0999471872       12.6186193076
  C        24.4674200217        6.4500277629       12.4057528610
  C        23.4817248563        6.7337262638       11.4401494392
  C        22.8395932650        5.7089012284       10.7437198700
  C        25.1107937028        7.5462378879       13.1782861709
  C        25.1230363092        7.5375807313       14.6028630530
  C        24.4446247121        6.5373735398       15.3688376170
  C        26.5551784918       17.8201707480        5.7464697612
  C        25.2483726880       17.8760272419        5.0374064742
  C        24.9959702334       18.8771377560        4.0864620012
  C        23.7839815840       18.9035305803        3.4032158362
  C        22.7948283641       17.9305379255        3.6481555119
  C        23.0411257501       16.9553799835        4.6324115787
  C        24.2539283068       16.9249224076        5.3165842993
  C        21.5311723231       17.9190173321        2.8758564694
  C        21.5450416473       17.9095671123        1.4543526043
  C        22.7571676941       17.7830480718        0.7051256897
  C        34.3767867430       17.2024023823        5.8696906832
  C        35.6703517721       17.1180052716        5.1341137654
  C        35.8642919415       16.1573600455        4.1282949178
  C        37.0584299921       16.1219164582        3.4113526578
  C        38.0902213571       17.0458910272        3.6746960245
  C        37.8972034906       17.9830069587        4.7083114721
  C        36.7041071195       18.0229457376        5.4249736785
  C        39.3508158526       17.0508908675        2.8949596577
  C        39.3503886611       17.0765845425        1.4725280883
  C        38.1457476826       17.2105268892        0.7130296169
  C        20.3045302599       17.9409128941        0.7377810558
  C        20.3036919725       17.9158785914        3.5497735087
  C        34.3951766245       17.2517774398       10.2538972646
  C        35.7084020333       17.1580786017       10.9575756231
  C        35.9416961489       16.1624961627       11.9188450197
  C        37.1439904351       16.1301462667       12.6206335449
  C        38.1436978197       17.0948600086       12.3855821356
  C        37.9182274653       18.0627312964       11.3887287793
  C        36.7162393311       18.0969724132       10.6859571682
  C        39.3979344549       17.1079774720       13.1731029616
  C        39.3747675253       17.1061316171       14.5948111003
  C        38.1572209445       17.2225593034       15.3365933896
  C        35.1055582466       26.6506807535       15.2915179357
  C        35.1754759141       26.6573699218       12.4825159962
  C        26.5750296163       17.8340668025       10.3218148666
  C        25.2664481600       17.8766273176       11.0360481681
  C        25.0035975829       18.8855862295       11.9752193072
  C        23.7845525702       18.9154629008       12.6466889098
  C        22.7999217045       17.9390604044       12.3976007428
  C        23.0583903303       16.9536847984       11.4279790272
  C        24.2787942556       16.9193978327       10.7577935185
  C        21.5308974416       17.9285707220       13.1594053836
  C        21.5439820133       17.9137318990       14.5800132677
  C        22.7562488341       17.7845850810       15.3290589248
  C        14.0471227695       17.8342725082       10.2812960693
  C        15.3565192485       17.9044017095       10.9917672859
  C        15.6197058396       18.9253656505       11.9179312582
  C        16.8326757146       18.9559111772       12.6021013632
  C        17.8129123396       17.9678596724       12.3816562583
  C        17.5564706923       16.9734774191       11.4195176844
  C        16.3434181557       16.9389685891       10.7359615765
  C        19.0771827715       17.9506091232       13.1552798295
  C        19.0630282636       17.9440319652       14.5766798410
  C        17.8481878435       17.8507911562       15.3261511156
  C        46.8019596298       17.2187857576       10.1598087421
  C        45.5095797844       17.1546069396       10.9061673160
  C        45.3012713764       16.1711109255       11.8858963616
  C        44.1181077813       16.1470856156       12.6206552410
  C        43.1105751370       17.1068909401       12.3997899726
  C        43.3167177657       18.0711949126       11.3941834613
  C        44.5005593795       18.0985885177       10.6598461817
  C        41.8547005926       17.1099624592       13.1879230153
  C        41.8583432210       17.0962093106       14.6110541538
  C        43.0655235407       17.1855023430       15.3736401109
  C        20.3035510590       17.9430563034       15.2941709903
  C        20.3052908913       17.9257295860       12.4820544830
  C        46.7803624502       17.2292110440        5.8885009205
  C        45.4730467360       17.1133600315        5.1751940103
  C        45.2564088573       16.1074544814        4.2205252898
  C        44.0654635562       16.0659948285        3.4981845638
  C        43.0576265854       17.0268817234        3.7118392681
  C        43.2649025299       18.0030370433        4.7049171738
  C        44.4574435245       18.0509091549        5.4222873766
  C        41.8085738069       17.0362441576        2.9135428238
  C        41.8348278200       17.0568844426        1.4913954843
  C        43.0542093387       17.1653165160        0.7507090701
  C        46.1529821719       26.6371806010        0.7262352700
  C        46.1621796082       26.6562915469        3.5358789121
  C        14.0376360484       17.8266876829        5.7046639417
  C        15.3475353040       17.8925050036        4.9991396372
  C        15.6154689732       18.9161575971        4.0784796274
  C        16.8364724760       18.9517638661        3.4106850561
  C        17.8126753030       17.9623568927        3.6397705484
  C        17.5499088397       16.9636252713        4.5944380090
  C        16.3313687219       16.9278679714        5.2663698916
  C        19.0783423376       17.9443687344        2.8731283725
  C        19.0638222191       17.9398534666        1.4523477951
  C        17.8487195533       17.8483051230        0.7022931422
  C        28.7383617089       14.1540398891       10.3643727574
  C        28.1608177409       12.9680449894       11.0600931028
  C        28.8914437769       12.2652708754       12.0304164547
  C        28.3212660548       11.1732801749       12.6815834746
  C        27.0021527287       10.7615745479       12.3976229237
  C        26.2940049137       11.4485849827       11.3938117511
  C        26.8636948957       12.5353780196       10.7352908040
  C        26.3537090472        9.6700111336       13.1645323158
  C        26.3533392568        9.6938641922       14.5870121508
  C        26.8439151077       10.8146343024       15.3288156348
  C        32.1605109853       21.3428571844        9.9887664011
  C        32.7686404174       22.4710052195       10.7551402707
  C        32.0013547701       23.1575520843       11.7097074376
  C        32.5727928193       24.1637576834       12.4843614143
  C        33.9245975033       24.5214761808       12.3177730404
  C        34.6786308280       23.8489629251       11.3367448806
  C        34.1130390970       22.8288997900       10.5729792700
  C        34.5449117617       25.5922341242       13.1353574290
  C        34.5121784433       25.5707551225       14.5571944454
  C        33.9776693254       24.4655616550       15.2912144432
  C        25.7636147530        8.6076546004       15.3121878130
  C        25.7160044731        8.6133031547       12.4980962900
  C        32.0587110105       21.1718771788        5.8061585337
  C        32.6415699373       22.3436902411        5.0922232840
  C        31.9069814317       23.0084092136        4.0973125123
  C        32.4801537055       24.0576332836        3.3826811679
  C        33.8031957818       24.4700581162        3.6385082206
  C        34.5178298073       23.8203175492        4.6640104430
  C        33.9489341309       22.7683151893        5.3777016115
  C        34.4449240078       25.5562756176        2.8601249089
  C        34.4618566754       25.5518196344        1.4367893811
  C        33.9545665606       24.4562589864        0.6683824370
  C        40.5984427040       17.0578571805        0.7652244011
  C        40.5750637893       17.0481955152        3.5760421639
  C        28.8151495727       14.1619220447        5.7226969201
  C        28.2394927019       12.9937772608        4.9944137574
  C        28.9604837203       12.3167192239        3.9980819073
  C        28.3919285062       11.2274139495        3.3376685680
  C        27.0858624338       10.7867971652        3.6411152130
  C        26.3867196118       11.4527350592        4.6661990555
  C        26.9517282529       12.5388992512        5.3296105959
  C        26.4370990904        9.6830833305        2.8872249578
  C        26.3968642396        9.6999779412        1.4645787665
  C        26.8635737147       10.8181504317        0.7043150085
  C        18.1358979197        3.1811213404       10.3168830725
  C        17.4065559629        4.2783903931       11.0155014167
  C        16.3903185303        3.9998668112       11.9424151448
  C        15.7424698341        5.0397053914       12.6060245426
  C        16.0947233649        6.3834459903       12.3669968645
  C        17.0846889240        6.6531656201       11.4038886078
  C        17.7339355209        5.6159486545       10.7387283729
  C        15.4700845640        7.4909769506       13.1301353288
  C        15.4851505607        7.4901760538       14.5518734445
  C        16.1866854421        6.4965312145       15.3050233167
  C        42.9457131980       31.8597735354       10.0727661357
  C        43.6461345276       30.7719776554       10.8167875033
  C        44.5916376290       31.0932964466       11.8028534991
  C        45.1973653001       30.0877495647       12.5505367534
  C        44.8709269112       28.7347090449       12.3356590901
  C        43.9451044830       28.4203630067       11.3224584109
  C        43.3362810573       29.4255175882       10.5744194363
  C        45.4885001559       27.6553752712       13.1388417610
  C        45.4925212840       27.6808629583       14.5605453574
  C        44.8054250717       28.6889258950       15.3071431518
  C        14.8560391246        8.5625762804       15.2642709090
  C        14.8747555771        8.5627383995       12.4515853080
  C        42.9464480856       31.9620887794        5.8089826891
  C        43.6916605031       30.8858197700        5.0953581560
  C        44.6564964689       31.1916297640        4.1233025162
  C        45.2779610132       30.1719883277        3.4055499225
  C        44.9538491747       28.8217373805        3.6429897564
  C        44.0200751319       28.5241435840        4.6534986923
  C        43.3918858704       29.5409730560        5.3656698348
  C        45.5628363607       27.7242316050        2.8577916128
  C        45.5330287723       27.7173743714        1.4364952208
  C        44.8267086296       28.7075982176        0.6835357434
  C        35.0819469134       26.6403132670        0.7374251333
  C        35.0629822129       26.6088850576        3.5482726207
  C        18.1492922658        3.2469155780        5.7067996879
  C        17.4305978689        4.3438296910        4.9976084126
  C        16.4149396880        4.0524766956        4.0745334291
  C        15.7665523911        5.0830124107        3.3990614308
  C        16.1215440935        6.4282518327        3.6212417224
  C        17.1134698588        6.7117381382        4.5779001821
  C        17.7612683771        5.6829059960        5.2577362267
  C        15.4907780477        7.5238372711        2.8487507015
  C        15.4963134091        7.5070984738        1.4275901798
  C        16.1929740752        6.5053574759        0.6808474770
  H        10.6724351507       12.4657166931        3.9042106302
  H        11.6947419402       10.5508699707        2.6625442902
  H        15.3914606888       11.1681935395        4.7726830274
  H        14.3509820844       13.0708083770        6.0178493431
  H        13.3761675945       11.6308736759        1.2013848333
  H        50.3222879940       22.7482170974        3.9865903205
  H        49.3191677227       24.6225969126        2.6805564385
  H        45.6422482276       24.1621197075        4.8645702765
  H        46.6631215031       22.2911266280        6.1728732761
  H        47.6296697645       23.5759463775        1.2462065691
  H        14.8727161733        8.5881738853        4.6086613747
  H        50.2864316940       22.7016435418       12.0611901355
  H        49.2686238019       24.5745274971       13.3612034602
  H        45.6111709227       24.1108933098       11.1444562422
  H        46.6531992046       22.2555526829        9.8300579519
  H        47.6076839467       23.5518657157       14.7969400436
  H        40.6366347516       17.1075372438       11.4203096536
  H        48.6871246094       14.0952235038        7.7999498199
  H        10.6811151262       12.4668592558       12.0940906620
  H        11.6893551012       10.5249272683       13.2976910845
  H        15.3927174537       11.1579575628       11.2048912521
  H        14.3643682968       13.0862770730        9.9897072733
  H        13.3756250683       11.6217996087       14.7532909664
  H        47.9301539745       14.2183377816        9.7110937242
  H        47.7800428926       14.3744377736        6.4954396142
  H        49.0835255377       18.5525018761       10.8672727503
  H        10.4160164762       14.1343337156        7.9988890724
  H        24.5286345270        3.0257886145        3.9477388117
  H        25.7075481436        4.8665836065        2.7414949658
  H        23.3277728767        7.7620832396        4.8507024068
  H        22.1669728727        5.9112260121        6.0605845654
  H        23.9167192237        5.7775658903        1.2904242945
  H        36.3617520522       32.1857680862        3.9764777712
  H        35.2194704353       30.3681297551        2.7073660751
  H        37.4810760472       27.4337012749        4.8926098703
  H        38.6032836200       29.2644576745        6.1716752695
  H        36.9879725789       29.4482585914        1.2880845323
  H        25.8760993017        8.6030616012        4.6600563880
  H        36.4525163079       32.2422264429       12.1102521534
  H        35.3381233842       30.4268154302       13.4056417256
  H        37.5378489502       27.4877075738       11.1624583795
  H        38.6262662618       29.3148847014        9.8537491879
  H        37.0230362058       29.4686745000       14.8408802056
  H        46.1094799278       26.5879483629       11.3855452666
  H        44.6682462307       35.1161513521        7.8138926534
  H        24.4509563459        3.0352068790       12.0859964085
  H        25.5987229264        4.8620694283       13.3333937553
  H        23.1988247463        7.7695784572       11.2637706584
  H        22.0648533594        5.9308741038       10.0132623044
  H        23.8725390762        5.7770992048       14.8448234494
  H        44.9535424724       34.3904728052        9.6952649726
  H        44.9003469550       34.2065194058        6.4905366558
  H        40.6661063887       33.2102037564       10.8532333506
  H        23.1519993984        1.9584679090        8.0063767787
  H        25.7598902285       19.6278010936        3.8980236314
  H        23.5889424363       19.6828295619        2.6697784662
  H        22.2849837274       16.1976875158        4.8272780714
  H        24.4602998547       16.1584524533        6.0597603723
  H        23.6931463077       17.6502268801        1.2400049800
  H        35.0645249695       15.4508833578        3.9160283348
  H        37.2061202745       15.3682490920        2.6409203767
  H        38.6825744963       18.7059478271        4.9190282614
  H        36.5433252096       18.7627613185        6.2055430911
  H        37.2060235264       17.3384920168        1.2422824455
  H        20.3022582168       17.9446838330        4.6379036846
  H        35.1664130041       15.4243934772       12.1109639365
  H        37.3219191097       15.3536738399       13.3614605517
  H        38.6820137594       18.8143059031       11.1996872061
  H        36.5241706211       18.8616072019        9.9369031223
  H        37.2263287544       17.3583285049       14.7938286964
  H        35.1650912218       26.6795200398       11.3944487964
  H        28.4069754628       21.1065597530        7.7856056904
  H        25.7629813060       19.6437557083       12.1551416290
  H        23.5790774858       19.7008377093       13.3708247741
  H        22.3052726790       16.1929316079       11.2331569711
  H        24.4954960968       16.1479959755       10.0228308610
  H        23.6915425328       17.6533169042       14.7929704931
  H        28.8643505690       21.8015388506        9.5779466618
  H        29.0678642149       21.7398180177        6.4324402906
  H        31.9963805236       18.7532739060       10.8796411668
  H        27.3246081790       19.0771755215        7.9857836275
  H        14.8625886247       19.6876883648       12.0871994857
  H        17.0350108966       19.7506734390       13.3169095394
  H        18.3055199232       16.2045737861       11.2417685737
  H        16.1304267613       16.1582778055       10.0096678952
  H        16.9094367545       17.7481086673       14.7898228584
  H        46.0838129586       15.4374810383       12.0651163684
  H        43.9599278561       15.3748737839       13.3703547470
  H        42.5494232171       18.8222363599       11.2177426021
  H        44.6729939171       18.8578544931        9.9004804286
  H        44.0083736629       17.3032378017       14.8470977543
  H        20.3078946655       17.9564420172       11.3939443879
  H        46.0376557132       15.3713546674        4.0449086684
  H        43.9044634325       15.2844063790        2.7587674590
  H        42.4943058163       18.7513461816        4.8784825905
  H        44.6349741435       18.8245966842        6.1654488095
  H        43.9884905741       17.2666310569        1.2953841196
  H        46.1991305520       26.6830160949        4.6233167947
  H        52.7413910137       21.0627881085        8.1946705927
  H        14.8580605538       19.6774696993        3.9059298091
  H        17.0485920635       19.7491538534        2.7017459803
  H        18.2976671670       16.1940069528        4.7742166757
  H        16.1103166684       16.1472175195        5.9901372177
  H        16.9102834711       17.7434555096        1.2385565476
  H        52.3230612522       21.6739639412        6.2945673703
  H        52.0140475354       21.7030050089        9.4955571154
  H        49.0670167853       18.6075818401        5.2041392052
  H        13.2473115874       19.0162585959        7.9751855416
  H        29.9025426008       12.5908242395       12.2647018772
  H        28.8946303442       10.6294672458       13.4290731175
  H        25.2740297778       11.1469087337       11.1645700480
  H        26.3090855356       13.0818769404        9.9766015547
  H        27.1772867962       11.6963322940       14.7898193805
  H        30.9590409703       22.8766556154       11.8399592836
  H        31.9714583039       24.6912116171       13.2217416187
  H        35.7255895309       24.1135921715       11.2032300163
  H        34.7028404371       22.2858734999        9.8379842200
  H        33.6102010412       23.6029210737       14.7421851176
  H        25.7335871458        8.5950236283       11.4097163886
  H        30.8928433659       22.6773683134        3.8850864905
  H        31.9028428562       24.5716003888        2.6172747480
  H        35.5413355021       24.1268519306        4.8697349484
  H        34.5093246459       22.2462910194        6.1498278487
  H        33.5710461942       23.5842947794        1.1904081160
  H        40.5674799151       17.0056624071        4.6636266948
  H        32.5221477214       14.1492057371        8.3653003072
  H        29.9643446461       12.6565951328        3.7519934858
  H        28.9615424344       10.7043578163        2.5726347172
  H        25.3763744681       11.1322671255        4.9119837298
  H        26.4020095028       13.0639988507        6.1066843881
  H        27.2113929060       11.7027135466        1.2296421727
  H        33.2827436366       14.1506401823        6.4251315860
  H        33.3892959922       14.4338025957        9.6988368469
  H        32.1963277554       18.4725838968        5.0975778700
  H        30.1980640313       14.1816413210        8.0962144017
  H        16.1180087754        2.9633419563       12.1283295032
  H        14.9526768479        4.8201668351       13.3212585787
  H        17.3675823648        7.6860352521       11.2114163544
  H        18.5165093461        5.8187855921       10.0114984517
  H        16.7532953678        5.7392486358       14.7714901615
  H        44.8278955556       32.1403934206       11.9770141393
  H        45.9372449605       30.3415438272       13.3064573016
  H        43.6824243006       27.3782928951       11.1523381295
  H        42.5996777464       29.1902661480        9.8097112744
  H        44.2301697320       29.4367397060       14.7687927498
  H        14.8512591091        8.5460748927       11.3633579160
  H        44.9002844753       32.2342905358        3.9320335301
  H        46.0250553137       30.4131852031        2.6524853748
  H        43.7628300057       27.4844501715        4.8448700803
  H        42.6451314110       29.3183188085        6.1239085403
  H        44.2683187616       29.4705630214        1.2181404646
  H        35.0208960952       26.6164154195        4.6358891127
  H        36.6054285328       35.1341533199        8.1809750801
  H        16.1435790352        3.0129037679        3.9052412634
  H        14.9739229618        4.8560572603        2.6893506830
  H        17.3974649196        7.7471708166        4.7542213896
  H        18.5446711456        5.8935029769        5.9818967980
  H        16.7645082218        5.7551718093        1.2192621671
  H        36.2797328320       34.4816704668        6.2733210046
  H        36.3823553634       34.2087121183        9.4995473898
  H        40.5794381828       33.2034181613        5.1533717421
  H        17.4728009203        1.9477404472        7.9742514565
  H        29.2490686793       19.8769470836       12.3364013109
  H        28.7430883179       18.6557205754        3.6942746652
  H        32.0679746244       16.8670777422       12.3938876919
  H        27.7310492763       18.2782747050       13.5680963193
  H        30.1284852270       15.5586262217       14.7696897586
  H        32.7181468952       16.8553208358        1.9250962645
  H        18.8542436016        0.8689565545       12.3358817821
  H        40.5276973281       35.2290299755        3.9517637921
  H        42.3256002084       34.4200892619        3.5901843242
  H        22.0880301797        0.6923005867       12.3511626059
  H        11.5966191075       18.7127678091       12.3828384271
  H        52.2650265047       18.4316941707        3.6777675055
  H        49.2552629940       16.4762306844        3.5838548970
  H        10.1505094242       15.7981992988       12.2922186539
  H        50.8503193712       17.6928872178        3.9538164310
  H        10.0462168908       17.3947556081       12.0518414833
  H        20.2159259736        0.0025562870       12.0419376338
  H        39.1836076011       36.1244192788        3.6863718850
 Ni        30.7685171450       17.6775728113        2.9194245241
 Ni        30.5219166110       16.4882458546        0.9158269796
 Ni        29.2102221080       17.5967530641       -0.6668985771
 Ni        29.8872567735       17.7861883096       12.9104345639
  O        10.6497873409       14.3652280447        5.4858432182
  O        12.6129688531       14.6573830911        6.5838934503
  O        49.1473656885       16.8459213782        7.9896137691
  O        50.3500170600       20.9362754059        5.6482164427
  O        48.3484085872       20.5931365648        6.6659393150
  O        11.0511216111       17.0539437852        6.5007294159
  O        50.3206871249       20.8816171526       10.4068845953
  O        48.3465761831       20.5865688911        9.3270113703
  O        49.5435159950       18.2482905661       10.0682431877
  O        12.3588009237       18.6247236301        7.9997530566
  O        48.6931440935       14.1487228858        6.7512493647
  O         8.2097698418       14.2106042415        9.3226172375
  O        10.7349538060       14.5067746735       10.6643001503
  O        12.5715710488       14.5826573128        9.3286622468
  O        22.8464920783        2.0464458781        5.4858984750
  O        21.6108988204        3.5964935439        6.5854352195
  O        42.0581818553       34.1378785801        7.9786556841
  O        37.9811538142       33.1347716874        5.5718725102
  O        39.2172807059       31.5745593178        6.6652896114
  O        20.3089382580        1.0409720575        6.5026793454
  O        38.0247483005       33.1856797480       10.4153769245
  O        39.2189484075       31.5835017521        9.3268933926
  O        40.6524737254       33.7699600363       10.0599565271
  O        18.2572473256        1.3762073357        7.9967652364
  O        44.6221322025       35.1006717223        6.7587167106
  O        24.2053472870        0.0001228298        9.3206813242
  O        22.7540634186        2.0586292079       10.5855804265
  O        21.6271468361        3.5996587970        9.3501878568
  O        27.4525311946       18.6770017683        5.4109299146
  O        26.6893070489       16.9284704021        6.6528682161
  O        30.6294071589       19.3537876724        7.9168852321
  O        33.4692933604       16.3372410922        5.5796431477
  O        34.2572710866       18.1466645259        6.7259424386
  O        29.5699551239       17.0647227242        6.5737093007
  O        33.4841839554       16.4020359995       10.5800543262
  O        34.2609365072       18.1807709233        9.3985693816
  O        31.6047339925       18.3998004895       10.0643551621
  O        30.3035297968       15.1474435512        8.1000284530
  O        28.4725511808       21.0271153954        6.7264901890
  O        28.3940373275       21.0171832940        9.2463335542
  O        27.4629909756       18.6856711116       10.6519197305
  O        26.6917249567       16.9340722606        9.4110385736
  O        13.1469484771       18.6938454387       10.5859246272
  O        13.9178929155       16.9159505436        9.4038883088
  O        50.5957030617       19.3501830677        8.0207957032
  O        47.6807754565       16.3276875671       10.4179428067
  O        46.9496499083       18.1758471748        9.3257730389
  O        11.0689545003       17.0158019493        9.4895198844
  O        47.6734630054       16.3360424736        5.6524301593
  O        46.9225635231       18.2356474506        6.6617790314
  O        49.5683491156       18.3177223483        5.9823005740
  O        10.3185747949       15.1001825684        7.9971520085
  O        52.6707088791       21.0279839786        9.2418155901
  O        12.1467832382       20.8914483440        6.6733904523
  O        13.1034561308       18.6144713909        5.3265483237
  O        13.9546088984       16.9863252202        6.6654024165
  O        29.8941882501       14.5789884382       10.7337752005
  O        28.0239005772       14.6555165394        9.4244328794
  O        32.0768112878       16.8572767513        8.0952943754
  O        30.9082543199       21.1663862057       10.0783054963
  O        32.9624465262       20.5945829715        9.3124961906
  O        29.5307131218       17.1424134100        9.5079174877
  O        30.8361384675       20.8777801447        5.5749148105
  O        32.8364885642       20.5171792065        6.5841782636
  O        31.6330338515       18.1758904121        5.8323025087
  O        28.2135297901       18.6861140773        7.9877018392
  O        32.4822297002       14.2264041075        9.4104133935
  O        32.4055169028       14.2152609680        6.8364945728
  O        29.9889466413       14.5822545669        5.4060493154
  O        28.0910704065       14.6525338949        6.6588642765
  O        17.8894799667        1.9667994064       10.6626685127
  O        18.9567246685        3.5272366845        9.4077120497
  O        39.1685509732       34.1386829383        7.9971018995
  O        43.2801835724       33.0590459029       10.3316737800
  O        42.0344295133       31.5065029313        9.2415332244
  O        20.3185393204        1.0379468441        9.4791736591
  O        43.2761686909       33.1829152556        5.5749198395
  O        42.0052855116       31.5842047139        6.5828941665
  O        40.5791687088       33.7757018261        5.9357943445
  O        22.3681199190        1.3861781102        7.9978347779
  O        36.6730088548       35.0998327181        9.2334261922
  O        16.4459884981        0.0641674023        6.6680774333
  O        17.9365292238        2.0433495358        5.3266510169
  O        18.9199619586        3.5931304102        6.6660200813
  O        29.6605479217       18.8203939070        3.9829925005
  O        29.8813920408       19.3534381694       11.8073491757
  O        31.1801053146       16.6262690407       12.0771280455
  O        31.9056382622       16.4149593301        2.2381455234
  O        30.7581251237       15.0255433622       15.3290415496
  O        28.5812516606       18.6198521143       13.9114901506
  O        39.4567577770       35.2438200998        4.0020331816
  O        19.1423158242        0.0048722344       11.9903537118
  O        41.9696558993       35.1728782063        4.0873112080
  O        21.6914074632       -0.0692854457       11.8958787185
  O        51.3648674236       18.6144629672        4.0052158137
  O        10.7509500555       18.7471030369       11.9050400712
  O        50.0793187776       16.4126579918        4.0917600269
  O         9.5244164696       16.4831018938       11.9911628311
 Zr         9.2977196685       16.0529347949        6.1821602043
 Zr        49.8368591941       16.0069473618        9.7465377684
 Zr        22.0733512693        0.0320870946        6.1884035582
 Zr        42.4610369154       35.1546908226        9.8009909147
 Zr        29.5455303860       19.0723921274        6.1441871896
 Zr        29.5187320742       19.2733952335        9.7151541849
 Zr        11.0382883275       19.0522748887        9.8280251320
 Zr        11.0438871198       19.1552561706        6.2510627679
 Zr        31.2628924372       16.1652539436        9.9353291845
 Zr        31.3938301020       16.0077307173        6.3720972568
 Zr        18.6019363464       -0.0005062980        9.7632123440
 Zr        18.5069539244       -0.0074923168        6.2140025628
 Zr        12.3020431368       16.3230160881        7.9908397406
 Zr        48.6166880863       18.8331032131        8.0098562598
 Zr        20.3189875479        2.4767952525        7.9906586103
 Zr        40.6433176270       32.6874705537        7.9776614870
 Zr        28.3041642451       16.3621194517        8.0443591233
 Zr        32.5900734762       18.8577463835        8.0237515455
  H        28.9912254126       16.5007198785        0.4298261206
  H        31.6149746915       15.1488158956       14.8833284702
