     569
 i =      141, E =     -4729.5067173588
  C        11.8584409830       14.0533982404        5.7415753018
  C        12.4558615218       12.8903025934        5.0233273490
  C        11.7043595163       12.1718682154        4.0811539917
  C        12.2806633401       11.1096269920        3.3887736194
  C        13.6210100086       10.7392912303        3.6169708768
  C        14.3539373704       11.4422869127        4.5910529643
  C        13.7810867335       12.5072481363        5.2826098211
  C        14.2605752850        9.6486671320        2.8435536558
  C        14.2559539986        9.6565899269        1.4218436219
  C        13.7428183815       10.7586996465        0.6678957735
  C        49.1264252614       21.2334459240        5.8797704056
  C        48.5495573481       22.4012018196        5.1526472486
  C        49.2996979147       23.0687596313        4.1718812522
  C        48.7327226735       24.1078167817        3.4386346240
  C        47.4020484657       24.5091566626        3.6670099853
  C        46.6709360374       23.8600007791        4.6802215166
  C        47.2334287654       22.8151530828        5.4096203527
  C        46.7718832749       25.5868764981        2.8697230494
  C        46.7610386818       25.5573224399        1.4479662421
  C        47.2609363993       24.4421948411        0.7045049718
  C        14.8598621771        8.5702210780        0.7085883064
  C        14.8912910767        8.5966674448        3.5202028150
  C        49.1129031343       21.2035067189       10.1453657041
  C        48.5274761954       22.3647403320       10.8725363184
  C        49.2667489561       23.0256903130       11.8652730629
  C        48.6903390053       24.0601746699       12.5967442191
  C        47.3598069833       24.4566580477       12.3586684329
  C        46.6392847406       23.8114565161       11.3354139048
  C        47.2129288683       22.7756124290       10.6036216945
  C        46.7213612483       25.5316358145       13.1496641774
  C        46.7332496320       25.5280966660       14.5713586639
  C        47.2486584605       24.4288760831       15.3277454116
  C        40.6219343158       17.1193858161       15.3149706284
  C        40.6332742695       17.1473914754       12.5049239023
  C        11.8826655536       14.0863528385       10.2854589888
  C        12.4717199657       12.9101993867       10.9894585178
  C        11.7143090603       12.1775636796       11.9160939625
  C        12.2807078814       11.0950074640       12.5845316585
  C        13.6192489756       10.7205841035       12.3522179996
  C        14.3570058935       11.4354562144       11.3907132057
  C        13.7917689485       12.5167108755       10.7180033954
  C        14.2528721319        9.6239175642       13.1227301737
  C        14.2518736445        9.6440645895       14.5445791987
  C        13.7421554874       10.7530920055       15.2916394785
  C        22.5126921305        3.2435101704        5.7520688516
  C        23.2309656889        4.3451294917        5.0496308591
  C        24.2257257521        4.0571534888        4.1033040994
  C        24.8592582467        5.0909684213        3.4185880028
  C        24.5139253220        6.4354468054        3.6599101762
  C        23.5464350230        6.7149350034        4.6424361601
  C        22.9083023407        5.6827699218        5.3257788533
  C        25.1277960634        7.5375727045        2.8837899433
  C        25.1002739661        7.5334076931        1.4620944271
  C        24.3944929729        6.5377111413        0.7150458336
  C        38.2976050206       31.9276160394        5.8522388550
  C        37.5554858586       30.8387245163        5.1521613437
  C        36.5895975278       31.1450137448        4.1809223856
  C        35.9592255873       30.1267063619        3.4707887741
  C        36.2793181846       28.7754118614        3.7080809345
  C        37.2139684577       28.4766276071        4.7176384704
  C        37.8482447691       29.4938396106        5.4273164569
  C        35.6716617479       27.6861118372        2.9083964374
  C        35.7155096737       27.6996252504        1.4866475540
  C        36.4254955096       28.7026829966        0.7539577742
  C        25.7263807233        8.6029652771        0.7437617339
  C        25.7318524886        8.6074357058        3.5553497233
  C        38.3306565735       31.9600892550       10.1610099505
  C        37.6158995683       30.8860613369       10.9110706121
  C        36.6815580732       31.1933808557       11.9123944968
  C        36.0740022720       30.1751351139       12.6454614926
  C        36.3855757043       28.8220276320       12.4024191155
  C        37.3009669917       28.5246248773       11.3738089146
  C        37.9100466357       29.5393087566       10.6416118412
  C        35.7738630842       27.7217451829       13.1848010737
  C        35.7673340883       27.7180518106       14.6076793159
  C        36.4484582061       28.7128153496       15.3772715718
  C        46.1353258499       26.6207870700       15.2814688196
  C        46.0873227058       26.5799164738       12.4735812355
  C        22.4628982161        3.2554410796       10.2562496783
  C        23.1626644952        4.3626546325       10.9762356090
  C        24.1699544743        4.0731825277       11.9104673306
  C        24.8041045656        5.1009491840       12.6042568649
  C        24.4508508037        6.4476583866       12.3866196344
  C        23.4666513498        6.7305291849       11.4206901025
  C        22.8281507332        5.7029541918       10.7269709310
  C        25.0863439327        7.5430120554       13.1609577874
  C        25.0793445413        7.5357830317       14.5836550567
  C        24.3828140117        6.5397924084       15.3381955899
  C        26.5552198073       17.8286996391        5.7802575967
  C        25.2564348921       17.8852172039        5.0585720687
  C        25.0124682332       18.8801699913        4.0987158069
  C        23.8046806466       18.9044329974        3.4068932000
  C        22.8092386542       17.9376414057        3.6535990287
  C        23.0487297278       16.9675406978        4.6448482638
  C        24.2578065827       16.9370846325        5.3349566271
  C        21.5445943673       17.9249281437        2.8816654577
  C        21.5543969733       17.9097721302        1.4598768613
  C        22.7640696500       17.7847541184        0.7063078625
  C        34.4395671186       17.1876508690        5.9219106678
  C        35.7325653062       17.1366772656        5.1825198532
  C        35.9255483478       16.1874015104        4.1662509557
  C        37.1049272916       16.1766238173        3.4274737533
  C        38.1248359417       17.1137086998        3.6841337573
  C        37.9350196734       18.0419027793        4.7263191547
  C        36.7525445393       18.0591574326        5.4621746380
  C        39.3766671301       17.1250486796        2.8938606190
  C        39.3692892387       17.1426858469        1.4715381937
  C        38.1618477576       17.2745437735        0.7161391173
  C        20.3115398500       17.9338913521        0.7465461541
  C        20.3181868930       17.9227213895        3.5590454718
  C        34.4524127915       17.1997919201       10.1834021465
  C        35.7465564486       17.1404600977       10.9147904955
  C        35.9574640646       16.1740966215       11.9101457106
  C        37.1464305463       16.1628174147       12.6336723073
  C        38.1527653792       17.1158998350       12.3822229689
  C        37.9455888752       18.0585796341       11.3573970336
  C        36.7547309306       18.0764807764       10.6367491330
  C        39.4033160310       17.1377651565       13.1728554418
  C        39.3832621768       17.1501212652       14.5944907617
  C        38.1682494526       17.2765865386       15.3391750968
  C        35.1331423001       26.6379249851       15.3079589622
  C        35.1940891197       26.6468259849       12.4980214118
  C        26.5601825499       17.8413840364       10.3134629949
  C        25.2455737032       17.8913182878       11.0119494640
  C        24.9912448061       18.8883915552       11.9663101667
  C        23.7767446658       18.9124687268       12.6449582224
  C        22.7882694652       17.9406690998       12.3913326191
  C        23.0369796280       16.9696973727       11.4042836333
  C        24.2526108843       16.9418013368       10.7249435030
  C        21.5251071662       17.9219859401       13.1624919164
  C        21.5438764629       17.9069837032       14.5835900324
  C        22.7585423869       17.7833864262       15.3299350515
  C        14.0451685358       17.8320455570       10.2836138485
  C        15.3522546538       17.8967991586       11.0003257938
  C        15.6124396897       18.9114683366       11.9340635555
  C        16.8234414110       18.9379762095       12.6221333200
  C        17.8049434377       17.9523386545       12.3969369123
  C        17.5507654242       16.9631067112       11.4289224222
  C        16.3393869376       16.9323927601       10.7421915887
  C        19.0709288918       17.9350946521       13.1677694903
  C        19.0625146713       17.9274240201       14.5893244864
  C        17.8507545831       17.8301829249       15.3430483417
  C        46.8025860450       17.2178239136       10.1581352661
  C        45.5101791345       17.1538664087       10.9003698371
  C        45.2998282873       16.1722728128       11.8814056495
  C        44.1162406895       16.1528056099       12.6148688345
  C        43.1121296432       17.1152383263       12.3907084455
  C        43.3192002502       18.0754925867       11.3817680370
  C        44.5032437695       18.0986140092       10.6487871399
  C        41.8591200448       17.1283045682       13.1809162610
  C        41.8673255076       17.1261734299       14.6032511178
  C        43.0779825281       17.2138437798       15.3600887386
  C        20.3057786256       17.9320682688       15.3025142029
  C        20.2965028341       17.9151742754       12.4902989798
  C        46.7850289759       17.2314386700        5.8877218220
  C        45.4830245668       17.1255967138        5.1702936934
  C        45.2654204237       16.1266072123        4.2091311165
  C        44.0779258638       16.0988052646        3.4819051864
  C        43.0782629391       17.0671365050        3.6982969909
  C        43.2865895340       18.0362157291        4.6976128143
  C        44.4749575940       18.0702773146        5.4201746980
  C        41.8313005310       17.0894543459        2.9022061869
  C        41.8533641934       17.1046159965        1.4810072539
  C        43.0713938488       17.2012399567        0.7370747657
  C        46.1531243573       26.6372480037        0.7262137453
  C        46.1619070584       26.6559665436        3.5358583403
  C        14.0392268787       17.8275632787        5.7058726226
  C        15.3527230074       17.8946891677        5.0040377507
  C        15.6239559515       18.9173445483        4.0832752580
  C        16.8476905005       18.9529787131        3.4197708302
  C        17.8242426014       17.9647720035        3.6532265502
  C        17.5584900469       16.9675235154        4.6085399998
  C        16.3370343903       16.9317315407        5.2758899988
  C        19.0906030264       17.9447239784        2.8861066774
  C        19.0729640130       17.9315078008        1.4651317335
  C        17.8558941884       17.8316915068        0.7193180027
  C        28.8165504418       14.0675467851       10.3543126583
  C        28.2125147836       12.8952708884       11.0431970026
  C        28.9355547810       12.1778990668       12.0083534743
  C        28.3407152524       11.1076624282       12.6714563608
  C        27.0104140896       10.7310712443       12.3944621852
  C        26.3107003246       11.4297970511       11.3936825681
  C        26.9015378078       12.5008147722       10.7292810914
  C        26.3433218130        9.6532603263       13.1598103996
  C        26.3302837172        9.6791891716       14.5810706358
  C        26.8307020209       10.7923241323       15.3279579681
  C        32.1956310553       21.2342773934       10.1455347895
  C        32.7935062790       22.3889451256       10.8746962963
  C        32.0465198974       23.0653576920       11.8520747145
  C        32.6170193636       24.1058135129       12.5785713895
  C        33.9505983295       24.4985934291       12.3514904366
  C        34.6805437607       23.8390566835       11.3441456979
  C        34.1126966686       22.7934384873       10.6183480705
  C        34.5755396167       25.5760087561       13.1535420699
  C        34.5544060019       25.5497853869       14.5757252177
  C        34.0460874311       24.4327581072       15.3112250693
  C        25.7196190992        8.6008459073       15.2988894761
  C        25.7047108873        8.6035398416       12.4858903982
  C        32.0726505835       21.1950790618        5.8728187993
  C        32.6424781023       22.3584255736        5.1323372841
  C        31.9192020608       22.9925144688        4.1102113981
  C        32.4944841425       24.0333016906        3.3829938478
  C        33.8068485977       24.4691469346        3.6556432620
  C        34.5100811343       23.8479905590        4.7062922230
  C        33.9406066190       22.8044202909        5.4299010579
  C        34.4516690334       25.5525737434        2.8761016956
  C        34.4900543322       25.5383318762        1.4536616609
  C        34.0140011673       24.4278415979        0.6878346071
  C        40.6144050330       17.1117178711        0.7600047832
  C        40.6020791027       17.1161145037        3.5700554058
  C        28.7498577881       14.0503811136        5.8072247517
  C        28.1518444344       12.8990080932        5.0806891891
  C        28.8818523555       12.2315177551        4.0845269772
  C        28.3077999975       11.1722862804        3.3871568061
  C        26.9877387088       10.7567801653        3.6566175559
  C        26.2775551167       11.4112183014        4.6812632377
  C        26.8495347057       12.4693731310        5.3830628227
  C        26.3462477982        9.6702830373        2.8798173496
  C        26.3327239645        9.6886222067        1.4576112223
  C        26.8291222504       10.7984681508        0.7040448565
  C        18.1354250563        3.1807568155       10.3170815189
  C        17.4058323261        4.2779284526       11.0156333703
  C        16.3902707195        3.9993840555       11.9432594321
  C        15.7423191619        5.0392126135       12.6067920883
  C        16.0938849401        6.3829973211       12.3670167110
  C        17.0830184652        6.6527356341       11.4030538831
  C        17.7323096100        5.6155204254       10.7379928944
  C        15.4694343699        7.4906201717       13.1300754034
  C        15.4849219667        7.4900855926       14.5517927401
  C        16.1865683158        6.4965479811       15.3049815354
  C        42.9457526065       31.8593897927       10.0728397724
  C        43.6460180371       30.7717172174       10.8167616722
  C        44.5917247213       31.0930045838       11.8026835989
  C        45.1973581322       30.0874313539       12.5503467474
  C        44.8706828003       28.7343989623       12.3356493534
  C        43.9446760122       28.4200929315       11.3225907722
  C        43.3359445291       29.4252554529       10.5745166282
  C        45.4882660815       27.6551216057       13.1388524560
  C        45.4926181088       27.6809006226       14.5605380739
  C        44.8056596309       28.6890465025       15.3071429659
  C        14.8560008350        8.5626190948       15.2641445665
  C        14.8739583226        8.5622740593       12.4514828372
  C        42.9463905972       31.9614919648        5.8089661728
  C        43.6915116742       30.8854032559        5.0954627785
  C        44.6564029399       31.1913068496        4.1234400289
  C        45.2778680460       30.1717161812        3.4056899080
  C        44.9537358548       28.8214262804        3.6430229174
  C        44.0198718889       28.5237569628        4.6534432146
  C        43.3916586832       29.5405220900        5.3656509568
  C        45.5627798406       27.7240366698        2.8577818006
  C        45.5332128031       27.7174370548        1.4364902839
  C        44.8269905810       28.7077288244        0.6835328584
  C        35.1034144143       26.6303945037        0.7535408582
  C        35.0556704155       26.6135895707        3.5637623218
  C        18.1486055235        3.2468316464        5.7066534931
  C        17.4298258332        4.3436540793        4.9974183050
  C        16.4146572730        4.0522702950        4.0738416726
  C        15.7662454629        5.0828338567        3.3984243035
  C        16.1207757155        6.4281081003        3.6211042452
  C        17.1120400344        6.7115802481        4.5784573302
  C        17.7598280556        5.6827529766        5.2582530590
  C        15.4902089275        7.5237692774        2.8486391675
  C        15.4961475993        7.5071598813        1.4274955998
  C        16.1928736903        6.5054329273        0.6807988533
  H        10.6723927516       12.4663757209        3.9037767211
  H        11.6944220575       10.5514849899        2.6619322477
  H        15.3907285505       11.1671220217        4.7732951915
  H        14.3502613405       13.0699116783        6.0186971568
  H        13.3757969599       11.6308427350        1.2011664832
  H        50.3225056970       22.7489402476        3.9873488820
  H        49.3192281157       24.6232728602        2.6812053772
  H        45.6412885281       24.1604316604        4.8630802324
  H        46.6622606407       22.2896543030        6.1714216099
  H        47.6293109806       23.5757541824        1.2462008482
  H        14.8714789550        8.5878105839        4.6085070648
  H        50.2868788576       22.7030481063       12.0600592483
  H        49.2687162288       24.5758264001       13.3601237575
  H        45.6097405387       24.1083639550       11.1465878905
  H        46.6519810250       22.2531979166        9.8323197440
  H        47.6072713794       23.5516770007       14.7968679794
  H        40.6365915601       17.1140598975       11.4170820964
  H        48.6868616899       14.0948927553        7.7999599835
  H        10.6810351474       12.4671232156       12.0938766728
  H        11.6889089120       10.5250304730       13.2975594897
  H        15.3921615959       11.1568991938       11.2042476953
  H        14.3639175011       13.0855062688        9.9888768470
  H        13.3752213503       11.6216514657       14.7529902361
  H        47.9300674704       14.2178019631        9.7109706477
  H        47.7798489628       14.3727454816        6.4949772197
  H        49.0820955742       18.5519515331       10.8670952422
  H        10.4154505799       14.1343071188        7.9988498449
  H        24.4804023171        3.0165472902        3.9151296856
  H        25.6311258097        4.8667176206        2.6855209251
  H        23.2718403909        7.7500394559        4.8347326554
  H        22.1396016287        5.8897038336        6.0664110735
  H        23.8313368849        5.7818379695        1.2546377753
  H        36.3577551359       32.1890195008        3.9838323613
  H        35.2114658626       30.3695662371        2.7189630411
  H        37.4692743917       27.4365148450        4.9097468478
  H        38.5954807557       29.2689329035        6.1847450374
  H        36.9829604396       29.4552983443        1.3038543815
  H        25.7693380829        8.5865228192        4.6430045386
  H        36.4503126307       32.2370881750       12.1131533090
  H        35.3428210947       30.4213191305       13.4123081660
  H        37.5562008197       27.4850860818       11.1788387400
  H        38.6371391988       29.3122712286        9.8656973960
  H        37.0243517605       29.4728734174       14.8570528885
  H        46.1085276023       26.5871730588       11.3855409554
  H        44.6682664363       35.1160596230        7.8139840126
  H        24.4463620693        3.0340962909       12.0744420179
  H        25.5885106092        4.8694986030       13.3217130830
  H        23.1823042623        7.7658668422       11.2439823471
  H        22.0525189180        5.9184021124        9.9956557483
  H        23.8103427132        5.7859147176       14.8056071496
  H        44.9536673163       34.3902399416        9.6950489851
  H        44.9019655494       34.2068952206        6.4905485660
  H        40.6658803119       33.2088344269       10.8531598964
  H        23.1507826195        1.9572838618        8.0048919440
  H        25.7786739271       19.6281929839        3.9086122920
  H        23.6172245948       19.6796491123        2.6671584051
  H        22.2892266888       16.2136438544        4.8412917224
  H        24.4569711327       16.1733045380        6.0827197937
  H        23.7025252095       17.6574046137        1.2383082783
  H        35.1335081412       15.4718264411        3.9592937893
  H        37.2504550508       15.4334913316        2.6466031757
  H        38.7137207472       18.7741927557        4.9293877605
  H        36.5903421793       18.7930980255        6.2481610311
  H        37.2236203532       17.4063572800        1.2474368005
  H        20.3195654543       17.9570058979        4.6470335294
  H        35.1721799543       15.4504307216       12.1157678197
  H        37.3080403508       15.4106252340       13.4025969609
  H        38.7151074409       18.8018257464       11.1593757875
  H        36.5747686359       18.8212080796        9.8650256970
  H        37.2346570698       17.4084036566       14.7997258566
  H        35.1768372388       26.6710398051       11.4100362655
  H        28.5033502843       21.1069438999        7.8616965911
  H        25.7583578837       19.6347158076       12.1597116288
  H        23.5786063412       19.6884389211       13.3811380106
  H        22.2809803198       16.2132739053       11.2039408695
  H        24.4618001825       16.1782708632        9.9796604392
  H        23.6927313874       17.6555598334       14.7912184845
  H        29.0244948121       21.8070323497        9.7293429624
  H        29.1990691349       21.6953251189        6.5312722175
  H        32.0484866444       18.5156432282       10.9258514193
  H        27.3711313496       18.9842339846        8.0978835887
  H        14.8547404331       19.6727058252       12.1056831554
  H        17.0236641683       19.7287199607       13.3419712111
  H        18.3004516083       16.1955268813       11.2481588919
  H        16.1280377013       16.1560530258       10.0107575367
  H        16.9107158891       17.7220902768       14.8099450332
  H        46.0811161164       15.4379392579       12.0629925253
  H        43.9550240661       15.3838577503       13.3672345582
  H        42.5526744172       18.8267442586       11.2031125613
  H        44.6782568859       18.8549780856        9.8872417889
  H        44.0194067441       17.3232810750       14.8293530130
  H        20.2944227114       17.9483076797       11.4022794797
  H        46.0424196680       15.3860587733        4.0336812625
  H        43.9120567619       15.3231315712        2.7374439676
  H        42.5198801042       18.7884070101        4.8711579740
  H        44.6563937429       18.8373737463        6.1689760500
  H        44.0078361794       17.3000714246        1.2784337764
  H        46.1985364022       26.6824053448        4.6233124621
  H        52.7409783420       21.0625694045        8.1946341948
  H        14.8665892347       19.6777608611        3.9063311295
  H        17.0608965435       19.7492193923        2.7098263648
  H        18.3056222871       16.1982057651        4.7922753774
  H        16.1140245323       16.1516549043        5.9997065164
  H        16.9197043585       17.7247433332        1.2590741581
  H        52.3219948928       21.6734646732        6.2948326273
  H        52.0131360133       21.7022077098        9.4955160429
  H        49.0669317473       18.6079073507        5.2045061104
  H        13.2467545037       19.0167058525        7.9756577587
  H        29.9577535310       12.4772950409       12.2294334643
  H        28.9027689364       10.5514442334       13.4184915430
  H        25.2829383146       11.1494147830       11.1725543283
  H        26.3559177088       13.0621550781        9.9749533058
  H        27.1905778713       11.6644050723       14.7903632483
  H        31.0226503136       22.7510958556       12.0390366853
  H        32.0317734362       24.6283032351       13.3320257699
  H        35.7129114707       24.1309789232       11.1626338701
  H        34.6829315031       22.2613948671        9.8603037422
  H        33.7057586425       23.5577416698       14.7648947619
  H        25.7348866480        8.5842024905       11.3978971651
  H        30.9124386861       22.6466585088        3.8863281894
  H        31.9255189235       24.5235371766        2.5960585553
  H        35.5260731883       24.1702826401        4.9246485688
  H        34.4930270110       22.3040932183        6.2216003832
  H        33.6488206074       23.5488940972        1.2114832167
  H        40.5979810518       17.0754654160        4.6576226640
  H        32.5149168993       14.1003028605        7.8102009152
  H        29.8964164924       12.5592355856        3.8699533072
  H        28.8815177248       10.6514015276        2.6238030994
  H        25.2565573614       11.1030310765        4.8965643394
  H        26.2947402185       12.9906579823        6.1593382750
  H        27.1851472904       11.6763720370        1.2352222626
  H        33.3625493794       14.3046831646        6.4344835173
  H        33.3926834301       14.1768190901        9.5996892764
  H        31.9987157537       18.4166940419        5.0416080548
  H        30.1912030651       14.1959062127        8.1232458263
  H        16.1184894433        2.9628149667       12.1297209892
  H        14.9529692192        4.8196274983       13.3225022147
  H        17.3650587158        7.6856905577       11.2098060694
  H        18.5141263631        5.8182946301       10.0099411058
  H        16.7530419478        5.7391450394       14.7714823737
  H        44.8281835892       32.1400615930       11.9767582500
  H        45.9373532681       30.3411251165       13.3061829101
  H        43.6817496382       27.3780544479       11.1526402211
  H        42.5992316424       29.1899203210        9.8099440242
  H        44.2302881755       29.4368016551       14.7688425431
  H        14.8499255473        8.5453049781       11.3632712554
  H        44.9002362040       32.2339636039        3.9322429411
  H        46.0250072775       30.4128958569        2.6526693429
  H        43.7625293593       27.4840587851        4.8446706854
  H        42.6448550690       29.3177016284        6.1237883936
  H        44.2685103153       29.4706395586        1.2181118918
  H        35.0015682635       26.6290034933        4.6507187654
  H        36.6052158049       35.1339298914        8.1807016184
  H        16.1436691477        3.0126633446        3.9041347728
  H        14.9739413608        4.8558719722        2.6883494297
  H        17.3953760092        7.7470873442        4.7553801953
  H        18.5426330786        5.8932437721        5.9830792306
  H        16.7642869031        5.7551817722        1.2192459587
  H        36.2788664966       34.4821774657        6.2733150344
  H        36.3809437576       34.2089794445        9.4996705579
  H        40.5786809288       33.2015141933        5.1543037480
  H        17.4711300165        1.9471851489        7.9740821487
  H        29.1182275280       19.3492954447       12.4691267595
  H        28.7315172198       18.7507004654        3.7532773535
  H        31.7877316309       15.7869635234        3.4697280597
  H        31.3185181260       15.6099446764       12.4615462064
  H        28.1266347469       17.7804388041       14.3912358861
  H        29.4013199907       15.5143645016       14.4008483605
  H        32.4480582922       17.3375471800        1.3236983546
  H        18.8530110843        0.8686853108       12.3352966834
  H        40.5280811607       35.2290830117        3.9522014698
  H        42.3231127606       34.4181756523        3.5909561132
  H        22.0878644820        0.6923303419       12.3514270233
  H        11.5967837401       18.7131836960       12.3826514363
  H        52.2648807292       18.4310538964        3.6776859508
  H        49.2551410259       16.4766956369        3.5842668420
  H        10.1506823712       15.7981329426       12.2924568585
  H        50.8498164923       17.6926094829        3.9541450108
  H        10.0461973734       17.3945607963       12.0520187417
  H        20.2143935886        0.0022462831       12.0420770714
  H        39.1834655982       36.1241382712        3.6861938168
 Ni        30.5233002602       17.6168103513        2.6649041705
 Ni        31.0683896226       16.2790425392       -0.1690703200
 Ni        29.6374598536       18.1332521334        0.1710011651
 Ni        30.0964626058       17.3750370891       13.0770758385
  O        10.6498048428       14.3651158999        5.4857632705
  O        12.6130399857       14.6574013290        6.5838353348
  O        49.1478133318       16.8459957210        7.9898151063
  O        50.3500570135       20.9363697369        5.6483228685
  O        48.3484619367       20.5933048944        6.6660038718
  O        11.0508651294       17.0541167017        6.5005299676
  O        50.3208030200       20.8817378929       10.4068611337
  O        48.3466720773       20.5867269486        9.3270948671
  O        49.5432788780       18.2484552040       10.0684596659
  O        12.3585262762       18.6246211171        7.9997100238
  O        48.6932228951       14.1485580270        6.7512969878
  O         8.2097923418       14.2104486830        9.3226019177
  O        10.7352594833       14.5067379363       10.6643604261
  O        12.5717181351       14.5826761745        9.3285449326
  O        22.8444727109        2.0419797374        5.4872258307
  O        21.6066720688        3.5929576053        6.5883967151
  O        42.0578780741       34.1370971513        7.9790327301
  O        37.9812258182       33.1364293848        5.5723965431
  O        39.2173734376       31.5752558649        6.6658263154
  O        20.3084432095        1.0397473693        6.5019743388
  O        38.0242073029       33.1844253167       10.4159434123
  O        39.2184447638       31.5830193731        9.3274366194
  O        40.6521530462       33.7690908158       10.0602241081
  O        18.2559851875        1.3762446448        7.9967659271
  O        44.6222195629       35.1005494425        6.7587833691
  O        24.2053636589        0.0000144499        9.3208115711
  O        22.7532282395        2.0574136795       10.5836082632
  O        21.6248526561        3.5964586715        9.3431684792
  O        27.4526384603       18.6935315768        5.4915228398
  O        26.6883099216       16.9139693348        6.6663011943
  O        30.6289005635       19.3407487469        8.0048944125
  O        33.5857382484       16.2677648256        5.6749639317
  O        34.2665618645       18.1676808859        6.7312342048
  O        29.5283304442       17.0081807285        6.5801192128
  O        33.5993301694       16.2696446577       10.4087740684
  O        34.2673786011       18.1828049524        9.3943007881
  O        31.6434053770       18.3023235348       10.0670436693
  O        30.3148584749       15.1583655121        8.0765532582
  O        28.5478281190       21.0296630281        6.8240448717
  O        28.5494158706       21.0236928200        9.4048972868
  O        27.4537018585       18.6848000248       10.6495648644
  O        26.6924207586       16.9266409500        9.4126342790
  O        13.1469344095       18.6937624143       10.5863409431
  O        13.9181286023       16.9159332209        9.4039638099
  O        50.5956228858       19.3503481708        8.0208592393
  O        47.6822205056       16.3273837620       10.4175180811
  O        46.9510940703       18.1758239364        9.3249971873
  O        11.0690496217       17.0158131590        9.4897778199
  O        47.6761016974       16.3356809826        5.6530351955
  O        46.9265492475       18.2356951344        6.6639567670
  O        49.5687544315       18.3178410367        5.9822999391
  O        10.3184010424       15.1001909307        7.9971162977
  O        52.6707231751       21.0279989225        9.2418504761
  O        12.1468264238       20.8913554418        6.6732568234
  O        13.1051686227       18.6142442955        5.3261342506
  O        13.9553187518       16.9863495386        6.6655025333
  O        29.9993667783       14.4280680077       10.6599340286
  O        28.0758457303       14.6546376132        9.4815136990
  O        32.0687152786       16.8568015752        8.0043570386
  O        30.9716746199       20.9554420367       10.4024007099
  O        32.9484200753       20.5951735964        9.3308205261
  O        29.4560502616       17.0025958364        9.7411311661
  O        30.8450165123       20.8819168763        5.6558130116
  O        32.8649638313       20.5815778560        6.6646231355
  O        31.6086535974       18.2513106942        5.9194658753
  O        28.2704770014       18.6186193673        8.0712307398
  O        32.4864746658       14.2093070046        9.2511205115
  O        32.4505801144       14.1450986400        6.7420093125
  O        29.9188752885       14.4343901335        5.4871764099
  O        28.0351445042       14.5799721978        6.7403432313
  O        17.8892271340        1.9664769452       10.6627620826
  O        18.9562802742        3.5271204784        9.4079707376
  O        39.1685789818       34.1386626406        7.9971538949
  O        43.2801150037       33.0588582563       10.3316648910
  O        42.0343448865       31.5064704710        9.2415573510
  O        20.3175423786        1.0366686022        9.4800989867
  O        43.2760614998       33.1825353445        5.5749097984
  O        42.0051909408       31.5841487489        6.5830213425
  O        40.5789935037       33.7749787486        5.9358712716
  O        22.3672728515        1.3846043787        7.9979225042
  O        36.6728522992       35.0996469719        9.2333563101
  O        16.4456896786        0.0641996379        6.6682804071
  O        17.9364246462        2.0432744802        5.3264585364
  O        18.9191959875        3.5931150672        6.6658940316
  O        29.6510788286       18.6855279513        4.0681139890
  O        29.7903754168       18.9023894952       11.9186239171
  O        31.3800061712       16.4157723047        4.0930353151
  O        31.3006468566       16.4159185267       11.9030076516
  O        31.7245086183       16.7064591616        1.5030263049
  O        30.2967626102       15.8267056206       14.1716452390
  O        28.9811029471       18.2491630837       14.3983316200
  O        39.4567836628       35.2436791038        4.0020240706
  O        19.1411728129        0.0043210699       11.9905336491
  O        41.9695977381       35.1727664684        4.0871446472
  O        21.6913751718       -0.0690611742       11.8958337043
  O        51.3649878331       18.6143522347        4.0053547229
  O        10.7510586301       18.7473419151       11.9050422162
  O        50.0795094027       16.4128158134        4.0917106579
  O         9.5247711224       16.4830373744       11.9911961585
 Zr         9.2959164534       16.0528306743        6.1821764490
 Zr        49.8352916553       16.0069371234        9.7467257384
 Zr        22.0731722697        0.0292591607        6.1891045722
 Zr        42.4607654537       35.1530920171        9.8008658617
 Zr        29.5616012702       19.0568088439        6.2060567353
 Zr        29.5894675468       19.2692005389        9.8244031543
 Zr        11.0368025189       19.0524091438        9.8277035873
 Zr        11.0426293637       19.1552848680        6.2515070464
 Zr        31.4934816521       15.9838621730        9.8130648696
 Zr        31.3312934466       16.0476103007        6.1819476634
 Zr        18.6009867581       -0.0020568253        9.7634040623
 Zr        18.5065438107       -0.0081149377        6.2135709585
 Zr        12.2999553135       16.3232705568        7.9905282020
 Zr        48.6152283272       18.8328662929        8.0103760260
 Zr        20.3153755888        2.4732469329        7.9904797965
 Zr        40.6428111586       32.6863054876        7.9780795627
 Zr        28.2759484585       16.2865012543        8.0303349845
 Zr        32.6194526604       18.8289913491        8.0301172417
  H        29.2727623866       17.8244245554        1.6379184944
  H        29.0790532302       16.7779003149       10.6183851249
  H        32.2157654199       15.4036565621       15.5403289488
