     571
 i =      276, E =     -4761.6045032398
  C        11.8589108315       14.0534324566        5.7414957694
  C        12.4563583637       12.8904931228        5.0233959535
  C        11.7045942707       12.1714042138        4.0818714722
  C        12.2809643178       11.1091971181        3.3895485941
  C        13.6216255783       10.7395361112        3.6171157999
  C        14.3548497182       11.4432173624        4.5904763470
  C        13.7819755655       12.5082177865        5.2819701796
  C        14.2611417816        9.6488938694        2.8436523921
  C        14.2561894151        9.6567290506        1.4219463538
  C        13.7428629228       10.7587805859        0.6680468947
  C        49.1269837886       21.2330994521        5.8794837752
  C        48.5503064840       22.4011915162        5.1525355917
  C        49.3002205102       23.0683671482        4.1713562461
  C        48.7332836876       24.1075626965        3.4382215648
  C        47.4028486494       24.5094227611        3.6670833248
  C        46.6720729902       23.8607564596        4.6808621606
  C        47.2345049480       22.8157871294        5.4101298327
  C        46.7724982413       25.5870928571        2.8698481455
  C        46.7611936802       25.5573363975        1.4480904120
  C        47.2609355309       24.4421605519        0.7045883647
  C        14.8602309153        8.5704811345        0.7086252967
  C        14.8922095258        8.5970723199        3.5202495973
  C        49.1130808813       21.2034218833       10.1452966237
  C        48.5276245418       22.3647263857       10.8725581840
  C        49.2666711589       23.0252436439       11.8657349433
  C        48.6903154016       24.0597997531       12.5971890593
  C        47.3600066399       24.4567830790       12.3587147129
  C        46.6397758177       23.8120854600       11.3349247950
  C        47.2133781918       22.7761990972       10.6031509428
  C        46.7214979180       25.5317303542       13.1497312467
  C        46.7331583434       25.5280361746       14.5714393507
  C        47.2485257309       24.4287926213       15.3278278442
  C        40.6287770624       17.1692241319       15.3030447295
  C        40.6423004117       17.2071969932       12.4940335087
  C        11.8830592396       14.0865137580       10.2853923266
  C        12.4723742341       12.9107831343       10.9896029490
  C        11.7149292700       12.1777233349       11.9159114604
  C        12.2815113944       11.0952696179       12.5843127634
  C        13.6202852837       10.7213765825       12.3523765602
  C        14.3581687245       11.4367822125       11.3913623956
  C        13.7927387593       12.5179269337       10.7186326765
  C        14.2538668686        9.6246187426       13.1228000330
  C        14.2523721931        9.6444645636       14.5446511471
  C        13.7423269879       10.7532916938       15.2917907529
  C        22.5125703981        3.2462831220        5.7523919990
  C        23.2255007417        4.3535349816        5.0535782314
  C        24.2228302418        4.0781255299        4.1060900568
  C        24.8472813003        5.1204884332        3.4254292100
  C        24.4906313349        6.4617721076        3.6705981618
  C        23.5217747809        6.7285117471        4.6554384753
  C        22.8929385631        5.6881721679        5.3348383552
  C        25.0925142319        7.5715900259        2.8952376007
  C        25.0672450229        7.5639308569        1.4733201765
  C        24.3705854957        6.5612728170        0.7266708671
  C        38.2956630525       31.9231774411        5.8509084878
  C        37.5496495057       30.8307575560        5.1518492260
  C        36.5793006196       31.1340177594        4.1834918665
  C        35.9438298779       30.1149154488        3.4769745854
  C        36.2604947193       28.7617975394        3.7123519486
  C        37.2001040041       28.4659455400        4.7188302618
  C        37.8395465254       29.4843304702        5.4250054886
  C        35.6475319402       27.6726711007        2.9101161710
  C        35.6938278494       27.6893559915        1.4869959285
  C        36.4091150387       28.6912749956        0.7574432979
  C        25.6865096327        8.6363497912        0.7533701532
  C        25.6843317605        8.6497824365        3.5657367745
  C        38.3306725962       31.9601376991       10.1615664303
  C        37.6146688684       30.8864175038       10.9132717817
  C        36.6817524518       31.1957812223       11.9153213543
  C        36.0705592132       30.1790976608       12.6480264482
  C        36.3764281741       28.8249934158       12.4035402681
  C        37.2917689853       28.5255658514       11.3753718487
  C        37.9048010026       29.5388336729       10.6439430744
  C        35.7575232576       27.7254441882       13.1826113936
  C        35.7497316252       27.7168296729       14.6057418442
  C        36.4342452176       28.7053601107       15.3805366300
  C        46.1352089852       26.6207065639       15.2815812780
  C        46.0876361258       26.5801622673       12.4736893109
  C        22.4627881331        3.2576145680       10.2589987789
  C        23.1586498928        4.3663947729       10.9812512589
  C        24.1583235054        4.0809405338       11.9252863220
  C        24.7876691447        5.1111701459       12.6205882541
  C        24.4387809870        6.4582340083       12.3955249515
  C        23.4625516633        6.7366304989       11.4196961494
  C        22.8283853881        5.7068025790       10.7249493197
  C        25.0688078492        7.5579655947       13.1700791303
  C        25.0557062744        7.5560278283       14.5932884089
  C        24.3624825758        6.5589996986       15.3496999116
  C        26.6850569112       17.8727030529        5.6621034719
  C        25.3820615695       17.9587784784        4.9364572585
  C        25.1211038172       18.9586332133        3.9868174563
  C        23.8855152546       19.0073089955        3.3404002766
  C        22.8789246546       18.0592629731        3.6189830468
  C        23.1398374535       17.0824085050        4.5974735298
  C        24.3717798428       17.0303521423        5.2431927008
  C        21.5928442595       18.0462122595        2.8772435722
  C        21.5844276785       17.9964054256        1.4562891901
  C        22.7861516552       17.8499978743        0.6935147340
  C        34.4349225467       17.1900396910        5.8802628524
  C        35.7300716938       17.1325096950        5.1454158578
  C        35.9359141506       16.1735040287        4.1413841077
  C        37.1193838750       16.1676352023        3.4083790371
  C        38.1291784405       17.1160626395        3.6632453620
  C        37.9279346000       18.0509784805        4.6961563979
  C        36.7408497510       18.0653574899        5.4234771630
  C        39.3832297148       17.1359705308        2.8780600678
  C        39.3760590490       17.1710175494        1.4571050896
  C        38.1685675986       17.3109734068        0.7028787297
  C        20.3338455249       18.0000690081        0.7565711458
  C        20.3723835946       18.0479310143        3.5694391265
  C        34.4729541512       17.2530715985       10.1486685859
  C        35.7700748929       17.2030368829       10.8802907182
  C        35.9744229613       16.2413171898       11.8815049697
  C        37.1579963863       16.2319105959       12.6127422821
  C        38.1648096426       17.1852645060       12.3652281818
  C        37.9643857954       18.1248280316       11.3364127075
  C        36.7791505589       18.1383182981       10.6055705249
  C        39.4119445756       17.2035199098       13.1602104448
  C        39.3909255622       17.2080947977       14.5815022670
  C        38.1755388380       17.3292396030       15.3263233086
  C        35.1093467654       26.6374945654       15.3013115549
  C        35.1714750279       26.6564111068       12.4912743701
  C        26.5654899379       17.8278327723       10.3229037733
  C        25.2484895164       17.8803008770       11.0208419560
  C        24.9817376510       18.8939254945       11.9538072926
  C        23.7620801017       18.9247263786       12.6235738456
  C        22.7808735310       17.9413653667       12.3856569232
  C        23.0417820480       16.9530699979       11.4193352559
  C        24.2617535906       16.9205311389       10.7466031653
  C        21.5187016603       17.9272927120       13.1610087856
  C        21.5469228613       17.9335446247       14.5820560313
  C        22.7682152899       17.8197337389       15.3183472631
  C        14.0439828892       17.8290372395       10.2882524679
  C        15.3458828801       17.8877190107       11.0146255673
  C        15.6003912000       18.8970081001       11.9560384986
  C        16.8084201382       18.9222724155       12.6492668855
  C        17.7941069298       17.9409225939       12.4222322565
  C        17.5435534051       16.9543695739       11.4501035086
  C        16.3351084451       16.9248475180       10.7580141293
  C        19.0638065746       17.9323709279       13.1874041574
  C        19.0664154867       17.9466931013       14.6096009787
  C        17.8631172424       17.8539231910       15.3777848682
  C        46.8054128376       17.2195241617       10.1565317205
  C        45.5132774791       17.1638112795       10.8973483429
  C        45.2954280432       16.1860967074       11.8798176831
  C        44.1114671347       16.1795948569       12.6122380064
  C        43.1180669907       17.1515421883       12.3836178005
  C        43.3321751443       18.1075036322       11.3728511532
  C        44.5162476295       18.1174823160       10.6412326887
  C        41.8661875531       17.1781366241       13.1717890430
  C        41.8743582361       17.1750832123       14.5932038173
  C        43.0852840403       17.2583047879       15.3500589140
  C        20.3153393131       17.9693818630       15.3121659731
  C        20.2846016066       17.9072256889       12.4996161504
  C        46.7860300150       17.2328380116        5.8858835368
  C        45.4853875224       17.1307855320        5.1640734051
  C        45.2708809478       16.1388136525        4.1950483801
  C        44.0849227710       16.1152830833        3.4648762434
  C        43.0836968696       17.0806161725        3.6868730773
  C        43.2891125002       18.0428189215        4.6932982165
  C        44.4761672588       18.0729613151        5.4182953070
  C        41.8371206287       17.1069543456        2.8899196393
  C        41.8598381367       17.1362255559        1.4691019863
  C        43.0783744955       17.2391413116        0.7268476325
  C        46.1531241491       26.6371955588        0.7263489063
  C        46.1627566810       26.6563322685        3.5359905701
  C        14.0512553616       17.8381447844        5.7102262775
  C        15.3765707249       17.9314556163        5.0245479179
  C        15.6386011817       18.9540954811        4.0995904724
  C        16.8676205564       19.0123796012        3.4449410161
  C        17.8669503944       18.0479315075        3.6873948781
  C        17.6121140913       17.0549849753        4.6517271577
  C        16.3845029660       16.9960739484        5.3102090436
  C        19.1337152972       18.0407052087        2.9116196611
  C        19.1026156687       18.0020439304        1.4893484717
  C        17.8806201447       17.8783019581        0.7541027084
  C        28.8095545194       14.0877028817       10.3642455537
  C        28.2026089610       12.9179337620       11.0608668625
  C        28.9180594637       12.1988008624       12.0297686139
  C        28.3181994597       11.1284632346       12.6893265300
  C        26.9896008552       10.7520614379       12.4043870405
  C        26.2968208239       11.4527506302       11.4004081091
  C        26.8930617301       12.5238772484       10.7404491883
  C        26.3181794001        9.6742560223       13.1676301477
  C        26.2946375937        9.7067937795       14.5889696163
  C        26.7831306411       10.8267629052       15.3340043253
  C        32.1806110009       21.2403352149       10.1074517720
  C        32.7718588580       22.4036039219       10.8385416609
  C        32.0213592379       23.0759983925       11.8157155165
  C        32.5881966507       24.1138277213       12.5510329138
  C        33.9225938552       24.5097837235       12.3326781902
  C        34.6564785630       23.8538641618       11.3257121181
  C        34.0921705506       22.8105241639       10.5927258021
  C        34.5474175226       25.5848082153       13.1409902830
  C        34.5265859710       25.5548167506       14.5632206576
  C        34.0152154466       24.4363996813       15.2936719038
  C        25.6861758802        8.6279529052       15.3079695711
  C        25.6874569598        8.6189585878       12.4944626265
  C        32.0316779373       21.1306416835        5.7887360772
  C        32.5956467667       22.3006593408        5.0551238609
  C        31.8822278452       22.9452959681        4.0316662185
  C        32.4581359097       24.0058061004        3.3325218330
  C        33.7638537678       24.4505884617        3.6287338979
  C        34.4547284045       23.8189311999        4.6815980807
  C        33.8834857957       22.7600970021        5.3812853346
  C        34.4157044521       25.5424716222        2.8645817392
  C        34.4588904665       25.5332094568        1.4418839168
  C        33.9830315291       24.4265095587        0.6699638638
  C        40.6213112976       17.1494193750        0.7472471161
  C        40.6070287988       17.1228517307        3.5566516898
  C        28.7173306472       14.0960497674        5.8167682739
  C        28.1036314364       12.9501884053        5.0865527798
  C        28.8300719726       12.2763670849        4.0921193448
  C        28.2517371591       11.2186280463        3.3956872040
  C        26.9297424176       10.8087831463        3.6636813065
  C        26.2212340430       11.4711995898        4.6845130817
  C        26.7981312091       12.5288671419        5.3853676687
  C        26.2908344531        9.7169817554        2.8892820716
  C        26.2813820527        9.7294172403        1.4663896624
  C        26.7735469240       10.8396514470        0.7102424248
  C        18.1355957651        3.1810586018       10.3171832358
  C        17.4064416545        4.2782880680       11.0158681471
  C        16.3901211183        4.0000378406       11.9427725827
  C        15.7424327470        5.0400751967       12.6062086199
  C        16.0949871291        6.3837300149       12.3670746321
  C        17.0851066084        6.6531675506       11.4040571466
  C        17.7341918199        5.6157656827       10.7390689372
  C        15.4705080886        7.4913986220       13.1300977459
  C        15.4856062620        7.4906048919       14.5518155978
  C        16.1872053082        6.4969897297       15.3049417442
  C        42.9456842018       31.8596955042       10.0727801967
  C        43.6460428683       30.7718935955       10.8167562147
  C        44.5913640125       31.0932296332       11.8030132517
  C        45.1970705202       30.0876936713       12.5507214339
  C        44.8708381158       28.7346074005       12.3357395207
  C        43.9452855883       28.4202514175       11.3222698865
  C        43.3364989128       29.4253859599       10.5741786902
  C        45.4883794301       27.6552778806       13.1389515080
  C        45.4925445620       27.6808692335       14.5606582692
  C        44.8056305621       28.6890024600       15.3073280907
  C        14.8564397225        8.5629769926       15.2641882778
  C        14.8753212500        8.5632078835       12.4515046035
  C        42.9465123378       31.9619291280        5.8089959333
  C        43.6919021170       30.8857091387        5.0956378135
  C        44.6563532856       31.1916352201        4.1232129815
  C        45.2779119283       30.1720599996        3.4054688115
  C        44.9543800086       28.8217211854        3.6432788694
  C        44.0211426680       28.5240460169        4.6542897545
  C        43.3928531436       29.5407972468        5.3664840698
  C        45.5632903594       27.7242660682        2.8579718356
  C        45.5333385078       27.7174493475        1.4366671231
  C        44.8270349556       28.7077026064        0.6837221757
  C        35.0779992513       26.6255105588        0.7475787219
  C        35.0236028088       26.5990186674        3.5589070226
  C        18.1488233200        3.2470159554        5.7066165242
  C        17.4304587083        4.3438321787        4.9971305345
  C        16.4147413097        4.0526415698        4.0740820115
  C        15.7664915061        5.0833204028        3.3987162830
  C        16.1216902150        6.4284941558        3.6209740127
  C        17.1137601071        6.7117948880        4.5775270325
  C        17.7614029523        5.6828442598        5.2572843249
  C        15.4910003834        7.5241646418        2.8485998482
  C        15.4966442386        7.5074625707        1.4274651611
  C        16.1934567099        6.5058050132        0.6807565359
  H        10.6724077673       12.4653750785        3.9049504432
  H        11.6946383410       10.5506081809        2.6631240639
  H        15.3919645087       11.1688127737        4.7720397924
  H        14.3516179681       13.0715834425        6.0171589603
  H        13.3758022925       11.6308792427        1.2013628795
  H        50.3228585483       22.7482072252        3.9864255128
  H        49.3196929566       24.6227222930        2.6805115429
  H        45.6427108185       24.1617905903        4.8643233054
  H        46.6636370510       22.2907036982        6.1724365795
  H        47.6295231887       23.5757979442        1.2462639579
  H        14.8729111186        8.5884290695        4.6085631567
  H        50.2866463638       22.7022649566       12.0608146229
  H        49.2686386769       24.5751419641       13.3608215226
  H        45.6104993056       24.1095864706       11.1455886598
  H        46.6527322114       22.2542599321        9.8313104193
  H        47.6072481256       23.5516498876       14.7969324651
  H        40.6470636128       17.1745509352       11.4062407364
  H        48.6870534239       14.0949751006        7.8000659601
  H        10.6814920552       12.4668326986       12.0934276342
  H        11.6897477801       10.5249425522       13.2970831005
  H        15.3935705933       11.1588447073       11.2053213897
  H        14.3650964916       13.0870931698        9.9899571140
  H        13.3754829627       11.6219358370       14.7532199575
  H        47.9303175363       14.2181917806        9.7111240425
  H        47.7799349631       14.3730088817        6.4951600353
  H        49.0840064502       18.5524770168       10.8672712661
  H        10.4163860964       14.1342790964        7.9986966286
  H        24.4869350226        3.0407134449        3.9130790257
  H        25.6207689199        4.9054159140        2.6913332080
  H        23.2382964937        7.7603467077        4.8523981755
  H        22.1230418990        5.8864623807        6.0765060681
  H        23.8104583615        5.8033391214        1.2664573096
  H        36.3466405119       32.1776022087        3.9845196308
  H        35.1939860619       30.3604303040        2.7279803607
  H        37.4566829591       27.4264242637        4.9128674339
  H        38.5894447604       29.2571215534        6.1793056050
  H        36.9686828332       29.4402943017        1.3101297457
  H        25.7202693834        8.6319892307        4.6535364485
  H        36.4539177527       32.2401276008       12.1167512863
  H        35.3401728654       30.4278400231       13.4148381471
  H        37.5434384516       27.4853490629       11.1793149307
  H        38.6313192903       29.3097061928        9.8680374320
  H        37.0140618509       29.4649431039       14.8638129760
  H        46.1092121779       26.5876817939       11.3856570383
  H        44.6685545993       35.1164024290        7.8139557120
  H        24.4334879474        3.0426121602       12.0961591272
  H        25.5660249076        4.8809333485       13.3449915092
  H        23.1807043965        7.7713473686       11.2354100788
  H        22.0592419199        5.9212852675        9.9865264067
  H        23.7955320109        5.7999688114       14.8185401039
  H        44.9546917223       34.3912685459        9.6957820582
  H        44.9024263144       34.2072074105        6.4905495391
  H        40.6667181030       33.2095741560       10.8532325219
  H        23.1502596358        1.9587883321        8.0052952902
  H        25.8922489024       19.6954290106        3.7718224429
  H        23.6868257378       19.7881805754        2.6093651975
  H        22.3770037659       16.3389784130        4.8194658648
  H        24.5817134225       16.2635651492        5.9845309589
  H        23.7281889513       17.7271744624        1.2195168993
  H        35.1544418811       15.4443893029        3.9402854955
  H        37.2769147116       15.4195107377        2.6344829570
  H        38.7010520979       18.7894938258        4.8979593912
  H        36.5673202806       18.8033442040        6.2031024380
  H        37.2310558023       17.4337978954        1.2374644226
  H        20.3868102718       18.1004829603        4.6567845493
  H        35.1865669619       15.5191035677       12.0819825791
  H        37.3167987362       15.4802483312       13.3828021313
  H        38.7349932346       18.8678953084       11.1418316659
  H        36.6042881856       18.8801353427        9.8299043392
  H        37.2435546917       17.4662387818       14.7854357646
  H        35.1557359052       26.6853787241       11.4033831343
  H        28.5078971386       21.0908736914        8.0156517955
  H        25.7437147981       19.6480411824       12.1373351287
  H        23.5549806757       19.7136859845       13.3433401114
  H        22.2929983391       16.1865334179       11.2304479336
  H        24.4797113380       16.1442658967       10.0170416545
  H        23.6959120157       17.6748215647       14.7728025751
  H        29.0353589007       21.7047394203        9.7469718057
  H        29.0624947477       21.7939452819        6.5965991627
  H        32.0865790054       18.5432313038       10.9451586631
  H        27.3376752421       19.0710690171        8.0685175700
  H        14.8413948373       19.6568798519       12.1278765490
  H        17.0045882506       19.7112211290       13.3721319268
  H        18.2952095993       16.1889748409       11.2681761688
  H        16.1285791775       16.1513144921       10.0222120607
  H        16.9185223613       17.7296079358       14.8561719250
  H        46.0707757806       15.4458956445       12.0630862074
  H        43.9414303233       15.4148706955       13.3669190650
  H        42.5721720409       18.8649593339       11.1927902025
  H        44.7004772268       18.8697377206        9.8779549833
  H        44.0265911096       17.3693248405       14.8194149594
  H        20.2731251779       17.9256813696       11.4113008765
  H        46.0489353221       15.4001834854        4.0160900723
  H        43.9215754579       15.3449642308        2.7143083083
  H        42.5212145974       18.7928038188        4.8710798622
  H        44.6556104157       18.8349208445        6.1728065974
  H        44.0143718456       17.3350438380        1.2694642831
  H        46.1999289458       26.6830412733        4.6234220833
  H        52.7410935362       21.0627016114        8.1947118788
  H        14.8679699308       19.6977706685        3.9088672449
  H        17.0650223891       19.8087520547        2.7304646791
  H        18.3727417587       16.3024300101        4.8495850877
  H        16.1766517504       16.2147505917        6.0374694524
  H        16.9493888616       17.7725181014        1.3024689984
  H        52.3222144950       21.6731887176        6.2943355420
  H        52.0131975475       21.7020616655        9.4956553447
  H        49.0688534553       18.6075868753        5.2033786988
  H        13.2477880042       19.0168204576        7.9775526329
  H        29.9399902135       12.4949832972       12.2558566747
  H        28.8750926991       10.5716776345       13.4398128232
  H        25.2701460475       11.1738108074       11.1723897249
  H        26.3534107442       13.0858534190        9.9822690831
  H        27.1393985231       11.6990499483       14.7941950893
  H        30.9968705588       22.7592373727       11.9962496431
  H        31.9980807067       24.6319556449       13.3038425704
  H        35.6897768057       24.1462060402       11.1499066865
  H        34.6676372844       22.2802804858        9.8373374575
  H        33.6722023857       23.5655803101       14.7422065609
  H        25.7241491263        8.5959183016       11.4067035443
  H        30.8791266152       22.6005324734        3.7893144201
  H        31.8935493004       24.5057952367        2.5485458115
  H        35.4642181583       24.1461421135        4.9219214661
  H        34.4267958895       22.2577254600        6.1779831959
  H        33.6168396252       23.5458646780        1.1892243237
  H        40.6012078246       17.0710203624        4.6437485044
  H        32.5060271680       14.1519017154        8.2536427009
  H        29.8463589681       12.5998693335        3.8793494925
  H        28.8243545834       10.6935342090        2.6343801993
  H        25.1984130318       11.1689035247        4.8998001731
  H        26.2451266652       13.0543118653        6.1603566439
  H        27.1197869510       11.7229815027        1.2392632926
  H        33.3038614666       14.2190230206        6.4583943144
  H        33.4111563845       14.3952246797        9.5989931095
  H        32.0858073861       18.4973953256        5.1057941947
  H        30.2062883623       14.1921302668        8.0794991971
  H        16.1175826413        2.9635873968       12.1287498847
  H        14.9525480069        4.8208278675       13.3214273444
  H        17.3682834959        7.6859558628       11.2115701595
  H        18.5169336998        5.8183975993       10.0119698294
  H        16.7539623494        5.7398253952       14.7714016447
  H        44.8275543189       32.1403253888       11.9772800400
  H        45.9368511828       30.3415464312       13.3067203545
  H        43.6828991361       27.3781421767       11.1519245440
  H        42.6002265260       29.1900658119        9.8091762413
  H        44.2304673427       29.4369350708       14.7690490659
  H        14.8518579947        8.5465904109       11.3632756315
  H        44.8997688230       32.2343298160        3.9316432635
  H        46.0247280726       30.4133847165        2.6521687898
  H        43.7645254761       27.4842805773        4.8461174186
  H        42.6466002667       29.3180261830        6.1251802778
  H        44.2688270106       29.4707948792        1.2183276769
  H        34.9668541527       26.6103330604        4.6459311674
  H        36.6055723513       35.1338500880        8.1808505729
  H        16.1432491571        3.0131147643        3.9047390323
  H        14.9737976696        4.8565903604        2.6890083228
  H        17.3979569194        7.7471760089        4.7538211004
  H        18.5449122579        5.8932999465        5.9813649343
  H        16.7651105390        5.7557175091        1.2191769997
  H        36.2795475308       34.4816902892        6.2727878640
  H        36.3819397656       34.2086267151        9.4994358221
  H        40.5790711889       33.2022224136        5.1538524802
  H        17.4718360618        1.9473577015        7.9739823129
  H        29.2679393080       19.5592528791       12.5765132332
  H        32.1967821626       15.7857304839        3.6992867922
  H        31.1474334755       15.6471785799       12.4953280104
  H        28.2537848334       18.1636080173       14.6852308703
  H        29.3653221406       15.6167953521       14.6312959881
  H        31.6679645670       19.6194040469        1.8031805482
  H        33.3427731575       16.8323809077        1.1274700391
  H        27.9582698716       17.1735729825        1.8783294442
  H        32.6294407266       18.5107219107       15.0086445851
  H        18.8539418045        0.8689289830       12.3352590614
  H        40.5283240235       35.2287062338        3.9519319166
  H        42.3253045838       34.4202025179        3.5896986238
  H        22.0874317835        0.6925968299       12.3511321635
  H        11.5967068469       18.7129238039       12.3823935446
  H        52.2649480010       18.4309200588        3.6768986105
  H        49.2555233243       16.4764826041        3.5841526603
  H        10.1499013779       15.7981555481       12.2929872893
  H        50.8501205365       17.6922454549        3.9541912544
  H        10.0460918657       17.3945774322       12.0519464252
  H        20.2155984328        0.0023277724       12.0417648267
  H        39.1839323368       36.1245513259        3.6868380938
 Ni        31.1204425280       17.2203051494        2.2503206111
 Ni        31.4124211640       16.3264188971       -0.2482198227
 Ni        30.2279473845       18.7219092077        0.0030551092
 Ni        30.1436794557       17.5404296740       13.2377891808
  O        10.6500704066       14.3651152407        5.4858975436
  O        12.6133006209       14.6576780819        6.5838461194
  O        49.1480306910       16.8458230303        7.9896349496
  O        50.3503324244       20.9356135898        5.6478561040
  O        48.3485820512       20.5933338441        6.6657892740
  O        11.0519642147       17.0536063481        6.5006611835
  O        50.3208510237       20.8816866995       10.4068195329
  O        48.3466849796       20.5867400119        9.3270382529
  O        49.5437925823       18.2483563968       10.0680940294
  O        12.3595477273       18.6245025512        7.9993183154
  O        48.6932574135       14.1485996613        6.7513220338
  O         8.2099061226       14.2104908469        9.3225438314
  O        10.7353703907       14.5067771792       10.6642787450
  O        12.5717993547       14.5829189658        9.3283662885
  O        22.8448391293        2.0444747961        5.4868546952
  O        21.6056864410        3.5924350429        6.5897466381
  O        42.0579576138       34.1374104448        7.9788818231
  O        37.9806171170       33.1321927796        5.5708628903
  O        39.2163683795       31.5732318002        6.6644312829
  O        20.3084355643        1.0396574673        6.5022726703
  O        38.0239832462       33.1841055581       10.4162579297
  O        39.2179041904       31.5824623159        9.3279141890
  O        40.6521776635       33.7692061865       10.0598976807
  O        18.2563457165        1.3759303050        7.9967151350
  O        44.6221524921       35.1006530606        6.7588071542
  O        24.2053717757        0.0000286650        9.3207052434
  O        22.7533438177        2.0586026142       10.5844258288
  O        21.6251922468        3.5968420921        9.3442426253
  O        27.6379079333       18.6870287226        5.3356142074
  O        26.7445397558       17.0013162017        6.5885283213
  O        30.6283044012       19.3549411587        8.0685282627
  O        33.5826304757       16.2663925961        5.6586974561
  O        34.2600827107       18.1853688331        6.6662504158
  O        29.5673885105       17.0632525427        6.5751222541
  O        33.6167212639       16.3411654129       10.4022748287
  O        34.3075129446       18.2321246478        9.3338985300
  O        31.6605446574       18.3132208869       10.1005383883
  O        30.3140251263       15.1574441177        8.0773766686
  O        28.5507608507       21.0314431159        6.9154418451
  O        28.5126694677       20.9583216314        9.4049774022
  O        27.4550053900       18.6763424567       10.6613029138
  O        26.6911655346       16.9288611537        9.4115200602
  O        13.1465623853       18.6935429052       10.5865904146
  O        13.9185930606       16.9162165248        9.4045374313
  O        50.5965014729       19.3502069826        8.0197416732
  O        47.6823473102       16.3274840718       10.4173607070
  O        46.9531456794       18.1766128508        9.3229303764
  O        11.0700901687       17.0152011792        9.4892238892
  O        47.6757954154       16.3358037874        5.6525920995
  O        46.9262584380       18.2358006633        6.6637097320
  O        49.5692644639       18.3176257856        5.9820988885
  O        10.3187517203       15.1001136825        7.9970276681
  O        52.6707180211       21.0278831751        9.2418112661
  O        12.1468917810       20.8912213264        6.6732071855
  O        13.1092164424       18.6140598485        5.3253147384
  O        13.9605086820       16.9885541106        6.6626162681
  O        30.0007853735       14.4370145822       10.6655840511
  O        28.0781758098       14.6587749278        9.4832731897
  O        32.0804398813       16.8657247256        8.0267079000
  O        30.9597216814       20.9604902295       10.3321605871
  O        32.9569359036       20.5892057613        9.3225234571
  O        29.5551621012       17.0815069395        9.5673719903
  O        30.8324813540       20.7412514260        5.4925174161
  O        32.7826828236       20.5857965477        6.6586898281
  O        31.5990149035       18.2436142451        5.9068703340
  O        28.2257128026       18.6785552546        8.0740407788
  O        32.4922580575       14.2155101968        9.3279088423
  O        32.4018698766       14.2182899914        6.8201749682
  O        29.9031945465       14.4402203475        5.4965306560
  O        28.0060879047       14.6483785506        6.7368276268
  O        17.8892747530        1.9665571974       10.6627441372
  O        18.9562855242        3.5271018407        9.4079305173
  O        39.1683668526       34.1383857131        7.9970149568
  O        43.2801138677       33.0589490078       10.3316802270
  O        42.0341931667       31.5064958209        9.2415603767
  O        20.3177704377        1.0368548248        9.4799905593
  O        43.2761247609       33.1827255328        5.5749078562
  O        42.0052154077       31.5841807315        6.5829464334
  O        40.5789200081       33.7751070461        5.9358273533
  O        22.3675447482        1.3849153024        7.9979629792
  O        36.6729089117       35.0996367259        9.2333933480
  O        16.4459771588        0.0638121000        6.6680165441
  O        17.9365543894        2.0432802054        5.3264532160
  O        18.9191322968        3.5930938725        6.6659989058
  O        29.8656319405       19.0473471785       11.9975085743
  O        31.3982333509       16.2667143730        3.9899800220
  O        31.2568469812       16.4744201882       11.9821588991
  O        32.5628893136       16.2677736877        1.2597308805
  O        28.4644095568       16.4836580779        1.4165959733
  O        30.2413259656       15.9023603089       14.3212199794
  O        31.7665649736       18.0991616608       14.8357881005
  O        30.8784460093       19.0561857531        1.7530845546
  O        29.0951439166       18.6070787957       14.4838858582
  O        39.4568464268       35.2436908672        4.0020341555
  O        19.1418388784        0.0044793324       11.9904236633
  O        41.9693872958       35.1727605482        4.0871890227
  O        21.6912362167       -0.0691966891       11.8958054195
  O        51.3652579706       18.6141804565        4.0053593080
  O        10.7509008193       18.7471599418       11.9048759178
  O        50.0798010075       16.4128150959        4.0917062471
  O         9.5242875537       16.4831092273       11.9911443375
 Zr         9.2972971076       16.0524584325        6.1825352803
 Zr        49.8370490408       16.0065592042        9.7463781758
 Zr        22.0738233888        0.0313423182        6.1886417456
 Zr        42.4614391257       35.1546632361        9.8010831640
 Zr        29.5917274115       19.0972840281        6.3886195299
 Zr        29.5567515068       19.1579382112        9.9134382099
 Zr        11.0378622134       19.0516928415        9.8274296309
 Zr        11.0449279226       19.1544413270        6.2505156957
 Zr        31.3404902013       16.0997167543        9.8765295998
 Zr        31.3641558437       15.9905430786        6.2284482042
 Zr        18.6018799520       -0.0006933494        9.7634412849
 Zr        18.5072768674       -0.0075488369        6.2135328696
 Zr        12.3032312195       16.3234647743        7.9892734556
 Zr        48.6172714798       18.8331629764        8.0095736652
 Zr        20.3166887075        2.4752565261        7.9908030850
 Zr        40.6435613403       32.6876191906        7.9776246116
 Zr        28.3263638801       16.3401483704        8.0802412845
 Zr        32.6315835378       18.8064397630        8.0369630380
  H        29.0975955924       16.9843863525        0.8338549026
