     569
 i =      165, E =     -4729.4891731493
  C        11.8593576397       14.0528792537        5.7416055414
  C        12.4564741724       12.8897846577        5.0234886213
  C        11.7051322215       12.1720944149        4.0806189660
  C        12.2813813606       11.1099163300        3.3881582020
  C        13.6214836993       10.7390317056        3.6168794529
  C        14.3541701530       11.4412639497        4.5917169582
  C        13.7814018796       12.5061407900        5.2834229329
  C        14.2609760407        9.6485311345        2.8433297480
  C        14.2562853205        9.6565737704        1.4216185679
  C        13.7433352963       10.7588068649        0.6677147517
  C        49.1253520766       21.2323938981        5.8794699038
  C        48.5480897044       22.4001279052        5.1526739705
  C        49.2976777585       23.0667307938        4.1707942277
  C        48.7306864466       24.1057178248        3.4375299408
  C        47.4004747665       24.5081094335        3.6668732921
  C        46.6700050257       23.8600322242        4.6812597586
  C        47.2325330666       22.8152344583        5.4107291444
  C        46.7703941653       25.5858155753        2.8695346349
  C        46.7595627202       25.5562302263        1.4477516592
  C        47.2590096844       24.4409307020        0.7042580970
  C        14.8599782473        8.5701336520        0.7082989474
  C        14.8916317139        8.5964597335        3.5199104566
  C        49.1123672480       21.2027529032       10.1445962747
  C        48.5269996555       22.3640757443       10.8720775931
  C        49.2659957487       23.0246596983       11.8652453301
  C        48.6895137839       24.0590618468       12.5968259730
  C        47.3591534780       24.4559171125       12.3584274717
  C        46.6388751884       23.8110369139       11.3347953966
  C        47.2126040790       22.7752550108       10.6029554215
  C        46.7206920136       25.5309270455       13.1494093050
  C        46.7322076565       25.5272386235       14.5711202787
  C        47.2469887461       24.4277297231       15.3274904320
  C        40.6380215290       17.1539289851       15.3081548642
  C        40.6511075694       17.1677948975       12.4994139294
  C        11.8827422545       14.0863092133       10.2853981232
  C        12.4716819195       12.9101246150       10.9893880531
  C        11.7143049693       12.1777859081       11.9162770118
  C        12.2805985917       11.0951703153       12.5846887779
  C        13.6189863296       10.7204154580       12.3520694292
  C        14.3566601060       11.4349238389       11.3902362297
  C        13.7915388149       12.5162590644       10.7175842315
  C        14.2525607144        9.6237227586       13.1225142612
  C        14.2518270797        9.6439841037       14.5443511075
  C        13.7424674129       10.7531421952       15.2914563202
  C        22.5083166451        3.2424309184        5.7530834343
  C        23.2170882304        4.3478315441        5.0504625688
  C        24.2096922269        4.0685373076        4.0999784708
  C        24.8309802471        5.1093079600        3.4153942655
  C        24.4740171496        6.4493566524        3.6628169321
  C        23.5092896727        6.7202377830        4.6497247027
  C        22.8833013809        5.6813804386        5.3324313239
  C        25.0755445163        7.5572196055        2.8886491576
  C        25.0450835939        7.5544396436        1.4677873043
  C        24.3419301267        6.5568142250        0.7207219376
  C        38.2979819941       31.9270546153        5.8510521841
  C        37.5568458502       30.8388382925        5.1487630409
  C        36.5919208076       31.1464508014        4.1767913036
  C        35.9610867996       30.1293873383        3.4653381061
  C        36.2790814581       28.7772386864        3.7016056213
  C        37.2135795145       28.4772138488        4.7111597748
  C        37.8484202224       29.4932594515        5.4222327502
  C        35.6673717252       27.6897584768        2.9024450437
  C        35.7034087233       27.7063187168        1.4801042086
  C        36.4146875057       28.7072113617        0.7462436910
  C        25.6678354384        8.6258954889        0.7507299466
  C        25.6753960842        8.6277294319        3.5622602940
  C        38.3287026556       31.9603903129       10.1596065481
  C        37.6078218727       30.8890191673       10.9067948281
  C        36.6770429572       31.2012739577       11.9100880084
  C        36.0627708299       30.1863346428       12.6417759610
  C        36.3633283580       28.8313655749       12.3951550034
  C        37.2742461124       28.5292523395       11.3637675355
  C        37.8907211902       29.5407425770       10.6332579657
  C        35.7457739110       27.7346273670       13.1775642129
  C        35.7429525211       27.7297046233       14.6007192360
  C        36.4323119498       28.7192109076       15.3692255331
  C        46.1345029258       26.6200523870       15.2812287718
  C        46.0869850640       26.5794156471       12.4733113970
  C        22.4593002454        3.2552302785       10.2568565825
  C        23.1504137404        4.3654720675       10.9795196540
  C        24.1523265502        4.0822821219       11.9210956464
  C        24.7763237594        5.1147133060       12.6169951411
  C        24.4180637894        6.4590149694       12.3930748884
  C        23.4395207671        6.7355920703       11.4198197844
  C        22.8107604008        5.7034138964       10.7246338670
  C        25.0437863554        7.5587668789       13.1681389155
  C        25.0297793176        7.5545005673       14.5905638031
  C        24.3329111368        6.5578480637       15.3439505281
  C        26.5412955267       17.8692381029        5.8311166287
  C        25.2445962710       17.9268398916        5.0998932319
  C        24.9989670131       18.9339939427        4.1531490048
  C        23.7997074158       18.9550261059        3.4456053943
  C        22.8116937262       17.9747222926        3.6664245364
  C        23.0525787796       16.9907983284        4.6438705538
  C        24.2548669850       16.9617580048        5.3466373321
  C        21.5491063010       17.9653869247        2.8894471974
  C        21.5584117122       17.9610588037        1.4672990550
  C        22.7686998888       17.8530407724        0.7119689472
  C        34.4960408318       17.2357042536        5.9575640644
  C        35.7763679023       17.1975250370        5.1996811583
  C        35.9757611441       16.2242207124        4.2080290745
  C        37.1449867223       16.2196438060        3.4542366667
  C        38.1469806134       17.1833768564        3.6771011292
  C        37.9500735000       18.1385070115        4.6924165466
  C        36.7755879165       18.1523983348        5.4401596128
  C        39.3955141457       17.1883967207        2.8841958677
  C        39.3859504341       17.1907318154        1.4628256468
  C        38.1771117293       17.3108789133        0.7078622743
  C        20.3144823242       17.9774323153        0.7543753564
  C        20.3227316848       17.9537219329        3.5669008167
  C        34.4818183564       17.2465390553       10.1716408998
  C        35.7824069991       17.1778586735       10.8929320536
  C        35.9860071927       16.2073710683       11.8851155886
  C        37.1702012986       16.1908589334       12.6148480499
  C        38.1767995115       17.1445942247       12.3710791824
  C        37.9792411900       18.0899137240       11.3474083527
  C        36.7926856946       18.1119676674       10.6202987645
  C        39.4219414879       17.1635746562       13.1666020046
  C        39.3997160372       17.1800365622       14.5875677815
  C        38.1836974060       17.3052043903       15.3308538963
  C        35.1048512343       26.6521773201       15.3014443931
  C        35.1578367031       26.6640916260       12.4914172133
  C        26.5592861875       17.8333933699       10.3327959079
  C        25.2467174320       17.8926755895       11.0271786226
  C        24.9762860502       18.9222164951       11.9425370617
  C        23.7603495529       18.9555976634       12.6174588649
  C        22.7850793106       17.9627147191       12.3967541713
  C        23.0472280169       16.9611265157       11.4445815762
  C        24.2649501011       16.9229402309       10.7699772414
  C        21.5224382903       17.9524030744       13.1685859462
  C        21.5440418576       17.9544578103       14.5897899262
  C        22.7613340490       17.8504003410       15.3351722145
  C        14.0450131606       17.8321976356       10.2846761163
  C        15.3511111235       17.8983672761       11.0038871041
  C        15.6066943225       18.9129425184       11.9391370585
  C        16.8163328790       18.9430000055       12.6293589196
  C        17.8021108902       17.9612803515       12.4051197170
  C        17.5520915731       16.9714309726       11.4364326857
  C        16.3417894202       16.9371142531       10.7474820544
  C        19.0685702012       17.9524150161       13.1757292810
  C        19.0624844473       17.9548942888       14.5977193547
  C        17.8524776795       17.8515474630       15.3531627316
  C        46.8062225318       17.2180978788       10.1559767219
  C        45.5161952810       17.1566415991       10.8974765281
  C        45.3074188402       16.1783956971       11.8815555733
  C        44.1254564936       16.1646730371       12.6163758743
  C        43.1253208037       17.1293506965       12.3875885608
  C        43.3304189560       18.0856801237       11.3753069686
  C        44.5128802246       18.1034676134       10.6416478680
  C        41.8748021235       17.1493776608       13.1766899242
  C        41.8834165842       17.1565259192       14.5977125628
  C        43.0945612791       17.2509587863       15.3522684269
  C        20.3066269050       17.9732906127       15.3100313539
  C        20.2937013086       17.9313033896       12.4973526010
  C        46.8058234319       17.2031325972        5.8545288710
  C        45.5001122544       17.1215498309        5.1456856111
  C        45.2706113393       16.1356355140        4.1740625516
  C        44.0803600777       16.1277399869        3.4531271351
  C        43.0933407182       17.1050596363        3.6852951307
  C        43.3133379458       18.0607371809        4.6944821538
  C        44.5040202661       18.0733845995        5.4132749764
  C        41.8471596059       17.1436802789        2.8926980402
  C        41.8694056165       17.1529052790        1.4721928831
  C        43.0879201679       17.2470502844        0.7289588327
  C        46.1520965709       26.6364130584        0.7259890268
  C        46.1607080583       26.6551154543        3.5356211562
  C        14.0400421275       17.8296632077        5.7073464128
  C        15.3548853645       17.9030769739        5.0086054881
  C        15.6226585763       18.9281397619        4.0894547627
  C        16.8471299776       18.9704837693        3.4279393676
  C        17.8281763647       17.9867594020        3.6617240762
  C        17.5659277644       16.9873547931        4.6158389710
  C        16.3435205170       16.9448380143        5.2812382419
  C        19.0946580216       17.9741747301        2.8948645261
  C        19.0764401745       17.9647996935        1.4738779579
  C        17.8593627344       17.8558716934        0.7294339546
  C        28.8098342706       14.0788910128       10.3996420937
  C        28.1908841752       12.9100204677       11.0784839798
  C        28.9041649861       12.1839209323       12.0444505868
  C        28.3003797468       11.1134194181       12.6973866190
  C        26.9700715252       10.7459734705       12.4090028678
  C        26.2806423279       11.4511208884       11.4062208138
  C        26.8813361251       12.5223938990       10.7513044224
  C        26.2953825248        9.6709855926       13.1694454767
  C        26.2757743810        9.7006973409       14.5903430829
  C        26.7731355175       10.8153110029       15.3376906510
  C        32.1724452373       21.2364250336       10.1500754471
  C        32.7608661493       22.4030885249       10.8689255229
  C        32.0137049504       23.0711855231       11.8519776504
  C        32.5793994568       24.1155395751       12.5769188925
  C        33.9086133425       24.5199916909       12.3436906706
  C        34.6373274301       23.8698328192       11.3290491260
  C        34.0743110740       22.8211953030       10.6042670111
  C        34.5346943814       25.5956650791       13.1467407796
  C        34.5176409314       25.5681200646       14.5694351815
  C        34.0076221854       24.4523478564       15.3050298712
  C        25.6643803780        8.6223966823       15.3065395774
  C        25.6623742255        8.6194968975       12.4937901915
  C        32.0797341581       21.2026578038        5.8762695441
  C        32.6445121123       22.3602402631        5.1283066094
  C        31.9133625203       23.0004529343        4.1153068604
  C        32.4850395749       24.0425196876        3.3874529392
  C        33.8009778720       24.4741178880        3.6504514708
  C        34.5123159649       23.8458469605        4.6915527020
  C        33.9471372008       22.8006954152        5.4157051041
  C        34.4417389409       25.5594335913        2.8706588390
  C        34.4689536131       25.5499364787        1.4477836184
  C        33.9831381712       24.4440775199        0.6818809509
  C        40.6306375414       17.1558056979        0.7519762009
  C        40.6194365704       17.1818778529        3.5612671638
  C        28.7679003851       14.0207800492        5.8301876884
  C        28.1442156236       12.8785057025        5.1038509388
  C        28.8666539090       12.1907274825        4.1162826711
  C        28.2716995871       11.1502158224        3.4088551183
  C        26.9393167031       10.7698795640        3.6655312831
  C        26.2348974549       11.4425746243        4.6816766784
  C        26.8269354293       12.4862638690        5.3895367320
  C        26.2866541868        9.6915657601        2.8872887080
  C        26.2725410195        9.7113880340        1.4657144095
  C        26.7703060459       10.8216033622        0.7139335411
  C        18.1351622451        3.1806138742       10.3171261242
  C        17.4054865279        4.2777734843       11.0156338215
  C        16.3897243635        3.9991652125       11.9429939181
  C        15.7416729346        5.0389951632       12.6064199627
  C        16.0933328227        6.3827530252       12.3667459922
  C        17.0826935773        6.6525279583       11.4030500950
  C        17.7320904121        5.6153358702       10.7380816682
  C        15.4689408811        7.4903676196       13.1298077964
  C        15.4846202195        7.4898666832       14.5515036981
  C        16.1862653569        6.4962601853       15.3045966025
  C        42.9457384404       31.8593594494       10.0728060840
  C        43.6460575752       30.7716463950       10.8166385754
  C        44.5919266525       31.0927792650       11.8024604603
  C        45.1975152826       30.0871082615       12.5500434583
  C        44.8706261652       28.7341137244       12.3353685664
  C        43.9444327573       28.4199585809       11.3224340002
  C        43.3357356608       29.4252273019       10.5744742019
  C        45.4880247134       27.6547011177       13.1385657827
  C        45.4921911530       27.6803889057       14.5602702395
  C        44.8053687280       28.6886413509       15.3068455703
  C        14.8559082978        8.5624956300       15.2638718870
  C        14.8734268763        8.5619833765       12.4512363423
  C        42.9462628568       31.9612941441        5.8088986242
  C        43.6912312665       30.8851235983        5.0953278178
  C        44.6561298453       31.1908430922        4.1232459688
  C        45.2774028096       30.1711406560        3.4054741740
  C        44.9530667564       28.8208880249        3.6427908087
  C        44.0191867109       28.5234118571        4.6532575798
  C        43.3911693576       29.5402808546        5.3654894458
  C        45.5618973175       27.7233621276        2.8575538470
  C        45.5324307750       27.7167724800        1.4362421610
  C        44.8265361727       28.7072536403        0.6832482232
  C        35.0824655451       26.6416723062        0.7472977571
  C        35.0534221401       26.6162125550        3.5581207216
  C        18.1484175452        3.2467008169        5.7066092002
  C        17.4297932976        4.3435103172        4.9971260456
  C        16.4145967352        4.0521093052        4.0736179001
  C        15.7662480723        5.0826586297        3.3981146381
  C        16.1209226942        6.4278935454        3.6207135208
  C        17.1122904800        6.7114111402        4.5779346925
  C        17.7599625696        5.6825798577        5.2578090050
  C        15.4904167121        7.5235659727        2.8482676384
  C        15.4962039329        7.5069917961        1.4271352129
  C        16.1927498772        6.5051718223        0.6804073482
  H        10.6734309616       12.4671741204        3.9026813324
  H        11.6953199585       10.5522865148        2.6607835391
  H        15.3907429345       11.1655572531        4.7743898211
  H        14.3503810965       13.0682983563        6.0200502576
  H        13.3766147929       11.6310817517        1.2009815148
  H        50.3200993866       22.7461406695        3.9854825902
  H        49.3168290113       24.6203539241        2.6792740155
  H        45.6407783318       24.1613085927        4.8650836191
  H        46.6617858936       22.2910036344        6.1737047844
  H        47.6267882680       23.5741995860        1.2458763477
  H        14.8718386556        8.5875296242        4.6082169053
  H        50.2859943867       22.7017770428       12.0602968202
  H        49.2677077906       24.5743439211       13.3605949943
  H        45.6094160321       24.1081071995       11.1457405549
  H        46.6518169567       22.2530614701        9.8313936280
  H        47.6052648680       23.5504102676       14.7965738802
  H        40.6549138549       17.1295945766       11.4118273368
  H        48.6837365091       14.0965357683        7.8007038778
  H        10.6811670812       12.4676771574       12.0943073601
  H        11.6888712886       10.5254348009       13.2979653083
  H        15.3916738455       11.1560299689       11.2035012575
  H        14.3635993122       13.0848698831        9.9882456175
  H        13.3756518535       11.6217733131       14.7528472437
  H        47.9305104945       14.2182035639        9.7121448000
  H        47.7798532935       14.3583371688        6.4865470161
  H        49.0799636199       18.5518685118       10.8641277091
  H        10.4172454633       14.1335531385        8.0006064198
  H        24.4714218680        3.0302359714        3.9088171560
  H        25.6015609689        4.8949921957        2.6780673739
  H        23.2277400010        7.7528631047        4.8450565344
  H        22.1157223383        5.8784596763        6.0767235204
  H        23.7796959928        5.8001732867        1.2602158517
  H        36.3608145354       32.1907662413        3.9804772250
  H        35.2138304621       30.3738821567        2.7135485227
  H        37.4681095251       27.4368010774        4.9026926406
  H        38.5950767464       29.2667043714        6.1797672298
  H        36.9784264205       29.4560118424        1.2949200973
  H        25.7150930985        8.6046976884        4.6497513923
  H        36.4543310625       32.2463037433       12.1134541193
  H        35.3349164971       30.4364860886       13.4104889515
  H        37.5205908676       27.4881358486       11.1657984483
  H        38.6147345165       29.3097566327        9.8555929387
  H        37.0105639544       29.4768755311       14.8481727147
  H        46.1083461726       26.5867422695       11.3852707093
  H        44.6681664163       35.1160831685        7.8139530807
  H        24.4323335709        3.0448044739       12.0891695645
  H        25.5566920428        4.8891690862       13.3406853772
  H        23.1518224065        7.7692490973       11.2388400565
  H        22.0389000554        5.9128289215        9.9876760767
  H        23.7632872944        5.8024921118       14.8103978721
  H        44.9535614770       34.3901717672        9.6950689182
  H        44.9017452598       34.2067348120        6.4906328830
  H        40.6653611091       33.2081117082       10.8527317550
  H        23.1500225576        1.9573298249        8.0052773112
  H        25.7580082315       19.6944840410        3.9855275797
  H        23.6119171020       19.7400577790        2.7163028546
  H        22.2991553034       16.2259248458        4.8203813242
  H        24.4556348136       16.1866564533        6.0823419170
  H        23.7092228295       17.7373147230        1.2433295068
  H        35.1963787272       15.4858841302        4.0360231022
  H        37.2997068719       15.4601777851        2.6909957188
  H        38.7171390770       18.8904168748        4.8656629715
  H        36.6046066558       18.9044852139        6.2068545501
  H        37.2389589867       17.4407803886        1.2400530928
  H        20.3245648272       17.9808154331        4.6550870266
  H        35.1957654930       15.4870832835       12.0827086450
  H        37.3287465987       15.4364980966       13.3822765284
  H        38.7519108281       18.8318566446       11.1570211454
  H        36.6161066088       18.8596547628        9.8507263058
  H        37.2504020262       17.4301076720       14.7891978502
  H        35.1383970795       26.6895014833       11.4034975142
  H        28.4883038118       21.1028956354        8.0323004082
  H        25.7290234213       19.6906434117       12.1036079782
  H        23.5487954418       19.7554113829       13.3238927103
  H        22.3002403317       16.1896700505       11.2694435337
  H        24.4845630303       16.1359870831       10.0526239008
  H        23.6961833154       17.7322153465       14.7951474917
  H        29.0204590918       21.7060989760        9.7551164660
  H        29.0706732588       21.8382526998        6.6399324704
  H        32.0835762810       18.5049241804       11.0072106650
  H        27.3821674848       19.0071303510        8.0406269311
  H        14.8464199940       19.6717963866       12.1098622010
  H        17.0125546359       19.7344141801       13.3495510919
  H        18.3044122301       16.2063301520       11.2560525643
  H        16.1344404730       16.1603689845       10.0152736835
  H        16.9126400615       17.7345899876       14.8215669100
  H        46.0884387899       15.4440539031       12.0638698447
  H        43.9618571153       15.4003635873       13.3728817585
  H        42.5643042552       18.8371504492       11.1961892058
  H        44.6907068334       18.8561813806        9.8773217522
  H        44.0352665645       17.3589424996       14.8200098297
  H        20.2909238020       17.9519753142       11.4090294737
  H        46.0405066496       15.3905821988        3.9874731580
  H        43.9015532514       15.3624075198        2.7011255628
  H        42.5547304956       18.8186017039        4.8784922102
  H        44.6973941241       18.8285912051        6.1711596466
  H        44.0237513308       17.3515950461        1.2701158500
  H        46.1973550874       26.6816048540        4.6230695664
  H        52.7406703852       21.0622882227        8.1942586038
  H        14.8617850744       19.6849419885        3.9121603842
  H        17.0574233358       19.7683744274        2.7189813041
  H        18.3164712457       16.2214511482        4.7999787981
  H        16.1231996163       16.1629129460        6.0039129528
  H        16.9246782943       17.7422334853        1.2703841901
  H        52.3206070456       21.6729617249        6.2952808268
  H        52.0125226151       21.7017949521        9.4952679786
  H        49.0701421667       18.6072133508        5.2025544202
  H        13.2468346301       19.0168256278        7.9763702457
  H        29.9279568381       12.4746514988       12.2696231759
  H        28.8536335122       10.5490885479       13.4448650823
  H        25.2533757635       11.1758744265       11.1765241061
  H        26.3444832960       13.0885761895        9.9944246186
  H        27.1320113773       11.6878310739       14.8001288034
  H        30.9950193811       22.7445770981       12.0467145488
  H        31.9937748067       24.6308099698       13.3350311412
  H        35.6663892467       24.1701874392       11.1426143464
  H        34.6451772787       22.2949575676        9.8426928818
  H        33.6606481673       23.5798894117       14.7587967812
  H        25.6989806849        8.5978342220       11.4060457620
  H        30.9031086870       22.6598007385        3.8995956184
  H        31.9105783374       24.5375345110        2.6075533059
  H        35.5310881859       24.1645975690        4.9019117007
  H        34.5052488758       22.2956774246        6.2004319355
  H        33.6172750782       23.5648738107        1.2045402813
  H        40.6146171614       17.1486829653        4.6490286430
  H        32.5389381344       14.0934205932        8.3621895233
  H        29.8936955965       12.4875780110        3.9177653178
  H        28.8379752890       10.6147681943        2.6499805323
  H        25.2042515250       11.1600365877        4.8860900168
  H        26.2776757174       13.0249047707        6.1579142629
  H        27.1266365270       11.6984187236        1.2470748953
  H        33.3546438816       14.0629756191        6.4736343587
  H        33.4108160006       14.4417913735        9.6749151783
  H        32.0106183449       18.4527205810        5.1403400349
  H        30.2124852284       14.1922790143        8.0439219342
  H        16.1179185525        2.9625783832       12.1293262489
  H        14.9521874411        4.8194277296       13.3219844089
  H        17.3648079161        7.6854869128       11.2099520664
  H        18.5140571117        5.8180471044       10.0101785043
  H        16.7525508171        5.7387705881       14.7710275895
  H        44.8285332270       32.1397982017       11.9765584235
  H        45.9375938148       30.3406775056       13.3058430917
  H        43.6812493945       27.3779720155       11.1525577616
  H        42.5987813397       29.1899926717        9.8101067997
  H        44.2301934838       29.4365259776       14.7685063745
  H        14.8492419039        8.5449517461       11.3630343207
  H        44.9001066903       32.2334617588        3.9320168178
  H        46.0245052488       30.4122091618        2.6523850443
  H        43.7615951647       27.4837741111        4.8444597357
  H        42.6443234327       29.3175693576        6.1236167754
  H        44.2681299886       29.4702463020        1.2177788334
  H        35.0064260595       26.6280391062        4.6454721213
  H        36.6051004942       35.1338314315        8.1806415267
  H        16.1435422454        3.0124955472        3.9040479454
  H        14.9738759588        4.8557210017        2.6881063195
  H        17.3957121495        7.7469194182        4.7547137929
  H        18.5427742111        5.8930196616        5.9826380422
  H        16.7641072914        5.7548561276        1.2188263676
  H        36.2788596304       34.4818493965        6.2734566976
  H        36.3807197380       34.2090760134        9.4997889046
  H        40.5785374357       33.2011071802        5.1542600577
  H        17.4706020779        1.9467239709        7.9739584174
  H        28.7927316108       18.9469906168       12.3695219036
  H        28.7003380098       18.8938776671        3.8617932313
  H        31.2840772481       15.5491762358        3.6702564333
  H        31.4730953072       15.5458724448       12.4927398485
  H        27.9625557896       19.1725789214       14.9937223901
  H        29.6007361960       15.2408453801       14.3014676185
  H        32.0633243491       16.8419845151        1.3823786036
  H        18.8530175278        0.8687740475       12.3351358196
  H        40.5281861188       35.2290656535        3.9522768875
  H        42.3227047908       34.4176948124        3.5912171345
  H        22.0876862754        0.6921506161       12.3513347447
  H        11.5967820022       18.7124221307       12.3821089425
  H        52.2635678743       18.4335217566        3.6738150314
  H        49.2522610108       16.4797991011        3.5940136236
  H        10.1501984141       15.7984028240       12.2928649865
  H        50.8498581579       17.6906168986        3.9527834023
  H        10.0454025834       17.3944685333       12.0517173376
  H        20.2141430193        0.0019716759       12.0420645993
  H        39.1835743477       36.1243228205        3.6864275354
 Ni        30.3536768948       17.5737042467        2.8322182293
 Ni        30.3077416958       16.8652414119       -0.1696863161
 Ni        29.2952790090       18.5787629514        0.9172694962
 Ni        30.1835524150       17.2791695926       13.2443244854
  O        10.6504655796       14.3645373619        5.4853587561
  O        12.6132554061       14.6572221067        6.5837696771
  O        49.1477701241       16.8422308094        7.9864688409
  O        50.3492235863       20.9365268113        5.6487547528
  O        48.3473189713       20.5913554902        6.6655791474
  O        11.0525526593       17.0529462531        6.5002316918
  O        50.3206547966       20.8814629180       10.4066139224
  O        48.3464698443       20.5861831237        9.3264738594
  O        49.5437296933       18.2479659634       10.0671732355
  O        12.3586966323       18.6245293732        7.9997283687
  O        48.6936755503       14.1485872824        6.7516566628
  O         8.2095593990       14.2100579731        9.3222548855
  O        10.7353339917       14.5066494090       10.6643178103
  O        12.5718223360       14.5827284238        9.3285656305
  O        22.8440239487        2.0422852703        5.4876263154
  O        21.6039645889        3.5912340672        6.5911520392
  O        42.0577377843       34.1368260103        7.9790493536
  O        37.9812997718       33.1362124270        5.5723476651
  O        39.2171125702       31.5748870446        6.6656094676
  O        20.3082261936        1.0392320066        6.5017937709
  O        38.0243442210       33.1851167201       10.4155301418
  O        39.2179858185       31.5827227048        9.3277429691
  O        40.6520688946       33.7689450125       10.0601913486
  O        18.2556165465        1.3760115989        7.9967580603
  O        44.6222459442       35.1005110165        6.7587415609
  O        24.2053659990        0.0000178611        9.3208435070
  O        22.7528826587        2.0578914541       10.5837502098
  O        21.6236903147        3.5953776408        9.3414314588
  O        27.4205567531       18.7667530049        5.5734723316
  O        26.6964845601       16.9160790635        6.6709155095
  O        30.6326242350       19.3406471580        8.0668392260
  O        33.6728357023       16.2761231940        5.7546698065
  O        34.3046164940       18.2364039933        6.7351897892
  O        29.4759882066       16.9510434164        6.4076176579
  O        33.6280184320       16.3272763897       10.3980092748
  O        34.3017504859       18.2517834977        9.4001384009
  O        31.6467973921       18.3127582704       10.1585606950
  O        30.3264573989       15.1564435413        8.0774489423
  O        28.5150108277       21.0891980198        6.9183507962
  O        28.5144415634       20.9522397018        9.4051017875
  O        27.4539718698       18.6795644494       10.6589385411
  O        26.6867097762       16.9271213860        9.4247178608
  O        13.1465777350       18.6940003539       10.5864528199
  O        13.9186371112       16.9162689350        9.4047318225
  O        50.5959354372       19.3495043020        8.0195989919
  O        47.6844355896       16.3268089329       10.4166639208
  O        46.9532756435       18.1763962423        9.3233752124
  O        11.0689410208       17.0159855339        9.4895964968
  O        47.6935208827       16.3174988592        5.5772159083
  O        46.9586617991       18.1749340758        6.6653266422
  O        49.5710224715       18.3170684813        5.9808585200
  O        10.3189092902       15.0993085432        7.9968459657
  O        52.6706469018       21.0280270762        9.2416780648
  O        12.1465918300       20.8911916003        6.6730871650
  O        13.1049420247       18.6144268991        5.3262869495
  O        13.9559044666       16.9865991943        6.6652638473
  O        29.9858649261       14.4348799931       10.7275267748
  O        28.0841585255       14.6502422703        9.4983800035
  O        32.1441057545       16.8581550134        8.0711389465
  O        30.9568929590       20.9398802292       10.4117298913
  O        32.9374643479       20.6047972184        9.3357005796
  O        29.5668892999       17.0716151060        9.4996358175
  O        30.8455634457       20.8906311940        5.6627319044
  O        32.8654785547       20.5870229125        6.6661840951
  O        31.6089932192       18.2476148125        6.0031078489
  O        28.2730671239       18.6212452327        8.0697585696
  O        32.5032060477       14.2028521332        9.4011985025
  O        32.4529247166       14.1414845225        6.8273496013
  O        29.9501328757       14.3687681182        5.5015049288
  O        28.0487138249       14.5830965532        6.7436763352
  O        17.8891338517        1.9663847243       10.6628490393
  O        18.9560548727        3.5270764058        9.4081044846
  O        39.1685811327       34.1385365610        7.9971276809
  O        43.2802156091       33.0588439354       10.3316471801
  O        42.0343311220       31.5064707349        9.2415593236
  O        20.3172556755        1.0361081325        9.4806108167
  O        43.2760547446       33.1823450571        5.5748853624
  O        42.0051765642       31.5840715496        6.5830684214
  O        40.5789531979       33.7748073000        5.9356563477
  O        22.3669742290        1.3840671765        7.9980824459
  O        36.6727287030       35.0996721528        9.2332959825
  O        16.4455541865        0.0640657841        6.6682385816
  O        17.9364118401        2.0431737111        5.3263721355
  O        18.9187969884        3.5931155158        6.6658830986
  O        29.6142306535       18.7578849215        4.1728021743
  O        29.6990316542       18.7625739241       12.0623333816
  O        31.3423121712       16.3397349071        4.2387097308
  O        31.4324367244       16.3391232976       11.9248007730
  O        31.1622976780       16.4833041562        1.4986352526
  O        30.4277010152       15.7606857229       14.3185293538
  O        28.8905996198       19.4251906121       15.1609432373
  O        39.4568433852       35.2437570678        4.0019785097
  O        19.1409583478        0.0042553462       11.9905993531
  O        41.9695784276       35.1726543487        4.0871293186
  O        21.6912479798       -0.0693084948       11.8958165742
  O        51.3646362686       18.6143782012        4.0051942385
  O        10.7509176871       18.7473351269       11.9048233110
  O        50.0842011158       16.4131495846        4.0886745532
  O         9.5242467571       16.4829791959       11.9910579423
 Zr         9.2989364259       16.0490429346        6.1771947875
 Zr        49.8359694975       16.0062972620        9.7453656595
 Zr        22.0729861553        0.0287341507        6.1893399006
 Zr        42.4606581369       35.1526281147        9.8008026947
 Zr        29.5786609123       19.1936891779        6.3048820413
 Zr        29.5780529598       19.1493337962        9.9175185625
 Zr        11.0364154526       19.0529970374        9.8275676597
 Zr        11.0435614124       19.1539829522        6.2500840293
 Zr        31.3517281345       16.0957450956        9.8898503569
 Zr        31.5231383081       15.9378936514        6.3028486156
 Zr        18.6006373677       -0.0025783300        9.7635692190
 Zr        18.5063381749       -0.0086945847        6.2133650157
 Zr        12.2999545171       16.3235655431        7.9906867173
 Zr        48.6176960572       18.8282544270        8.0075240128
 Zr        20.3140615104        2.4719757771        7.9907847452
 Zr        40.6423585201       32.6858203224        7.9781426929
 Zr        28.2858255533       16.2868278166        8.1338365020
 Zr        32.6381132917       18.8385165222        8.0549180614
  H        28.8807307859       17.5951107817        1.9723273328
  H        29.1049910690       16.7010775331        5.5377904628
  H        29.4287377082       18.6923003074       14.6262426251
