     571
 i =       82, E =     -4761.6242431260
  C        11.8588208103       14.0535559912        5.7415665331
  C        12.4563645473       12.8906314797        5.0232405706
  C        11.7046981762       12.1717441884        4.0815400590
  C        12.2811016591       11.1095670023        3.3891721404
  C        13.6216625136       10.7397847967        3.6169747361
  C        14.3548219947       11.4433429137        4.5904460023
  C        13.7819081634       12.5083091412        5.2819501438
  C        14.2612076555        9.6491258519        2.8435942141
  C        14.2566121947        9.6570742840        1.4218963430
  C        13.7435863366       10.7592739875        0.6680049461
  C        49.1269122410       21.2331910117        5.8796734017
  C        48.5501638039       22.4011969555        5.1525834001
  C        49.3002227231       23.0685720891        4.1716605478
  C        48.7332928029       24.1077356398        3.4384758086
  C        47.4027347789       24.5093092025        3.6670720060
  C        46.6717420758       23.8603716953        4.6805043302
  C        47.2341989450       22.8154500862        5.4098296080
  C        46.7724664912       25.5870071638        2.8698168740
  C        46.7613827342       25.5573817952        1.4480566891
  C        47.2612864784       24.4422655635        0.7045748251
  C        14.8605030800        8.5707069470        0.7086416505
  C        14.8918924789        8.5971330738        3.5202491137
  C        49.1132787070       21.2034452554       10.1453744981
  C        48.5278713289       22.3647964550       10.8726347294
  C        49.2671277832       23.0255646026       11.8654775054
  C        48.6907854638       24.0601196943       12.5969456689
  C        47.3603543921       24.4568255591       12.3587383216
  C        46.6398969773       23.8118481019       11.3352994672
  C        47.2134662633       22.7759403941       10.6035279268
  C        46.7219029522       25.5318187801       13.1497335669
  C        46.7335699736       25.5281753157       14.5714359722
  C        47.2489916227       24.4289501744       15.3278138718
  C        40.6352246572       17.1483609148       15.3241829949
  C        40.6555589346       17.1763939731       12.5153794884
  C        11.8830505634       14.0865533904       10.2854617056
  C        12.4724512951       12.9108074225       10.9897650402
  C        11.7149614010       12.1776022773       11.9158806620
  C        12.2815999524       11.0951864833       12.5843189169
  C        13.6204251340       10.7215178489       12.3524584775
  C        14.3583805282       11.4370903234       11.3916564063
  C        13.7929013484       12.5182312084       10.7189588564
  C        14.2540507939        9.6247717339       13.1228507261
  C        14.2528323367        9.6447539870       14.5446876523
  C        13.7430708367       10.7537600514       15.2917514839
  C        22.5105036114        3.2440265763        5.7527719860
  C        23.2222824167        4.3497019975        5.0517872341
  C        24.2180279026        4.0706387425        4.1041700339
  C        24.8420068359        5.1110114536        3.4208616739
  C        24.4855300004        6.4520594505        3.6653318937
  C        23.5179403524        6.7227066955        4.6498884417
  C        22.8893646813        5.6841747141        5.3315769048
  C        25.0893638879        7.5589887751        2.8896637786
  C        25.0635304287        7.5513929937        1.4682448721
  C        24.3615469235        6.5521833011        0.7218406007
  C        38.3032319489       31.9302602955        5.8492218532
  C        37.5746038969       30.8405992484        5.1394379560
  C        36.6148809802       31.1440425402        4.1618521050
  C        35.9987933509       30.1232777762        3.4434819216
  C        36.3280212543       28.7746325417        3.6817009687
  C        37.2582693959       28.4785590453        4.6955789063
  C        37.8784700188       29.4980537948        5.4127170858
  C        35.7261026696       27.6829814872        2.8847069736
  C        35.7562388316       27.6988611912        1.4635213319
  C        36.4629656661       28.7008643859        0.7265580710
  C        25.6882001565        8.6205673566        0.7487841447
  C        25.6843771224        8.6346255365        3.5609261629
  C        38.3290803758       31.9627553661       10.1559988962
  C        37.6074729389       30.8899065103       10.8979851079
  C        36.6796952858       31.1992838515       11.9041998361
  C        36.0698067224       30.1810598754       12.6341369883
  C        36.3736959689       28.8285430838       12.3809181385
  C        37.2790184835       28.5291078846       11.3445866163
  C        37.8910986052       29.5438314048       10.6160329215
  C        35.7656736868       27.7298442247       13.1650670911
  C        35.7764579668       27.7229451675       14.5869147684
  C        36.4721838286       28.7126675362       15.3498663508
  C        46.1355883036       26.6208337480       15.2815604282
  C        46.0879822890       26.5801856861       12.4736650545
  C        22.4602997265        3.2555466050       10.2570727869
  C        23.1533925104        4.3646700424       10.9794257321
  C        24.1556971764        4.0794839835       11.9201314660
  C        24.7825026536        5.1104424539       12.6156724913
  C        24.4269111134        6.4556978194       12.3926983779
  C        23.4478330736        6.7342061006       11.4203690050
  C        22.8163177701        5.7034823807       10.7253898611
  C        25.0562084599        7.5541525908       13.1670062228
  C        25.0469215284        7.5484402341       14.5895594466
  C        24.3516270103        6.5520730211       15.3450490509
  C        26.6268706225       17.8637207251        5.7827057999
  C        25.3184729653       17.9072296218        5.0576116666
  C        25.0605086293       18.8999794719        4.0992362996
  C        23.8468921174       18.9203794705        3.4140590972
  C        22.8540918751       17.9510011840        3.6643392158
  C        23.1087696217       16.9805430907        4.6518391611
  C        24.3241896230       16.9551133423        5.3349002275
  C        21.5801311155       17.9366824564        2.9004849618
  C        21.5789734298       17.9143401635        1.4777607137
  C        22.7839102927       17.7889567197        0.7165233148
  C        34.4426175748       17.1947691251        5.9245319380
  C        35.7367297585       17.1457958237        5.1824389337
  C        35.9395053865       16.1825544952        4.1820122265
  C        37.1182464234       16.1745876030        3.4418247963
  C        38.1263753527       17.1275942427        3.6844095639
  C        37.9272285347       18.0698116822        4.7113502078
  C        36.7449524174       18.0843448704        5.4475030603
  C        39.3797702076       17.1402911341        2.8974110238
  C        39.3761127308       17.1609259033        1.4759735554
  C        38.1695823015       17.2861753926        0.7178049091
  C        20.3320698928       17.9330001241        0.7695223697
  C        20.3551719605       17.9400670632        3.5828917303
  C        34.4772773546       17.2455243505       10.1827208673
  C        35.7805080480       17.1732963389       10.9052035006
  C        35.9942101881       16.1929217320       11.8855290628
  C        37.1794170797       16.1783451302       12.6152038121
  C        38.1786223793       17.1431238638       12.3827494464
  C        37.9715067026       18.0981114259       11.3702055622
  C        36.7839549694       18.1181591202       10.6439645498
  C        39.4243577163       17.1643941392       13.1791951269
  C        39.3990196260       17.1742901742       14.6000060331
  C        38.1806617965       17.2908905081       15.3409093313
  C        35.1446614725       26.6444805265       15.2907010289
  C        35.1747731568       26.6598178841       12.4818150235
  C        26.5689676703       17.8276155391       10.3227997230
  C        25.2531030800       17.8728213405       11.0279713486
  C        24.9897886492       18.8775075608       11.9713880041
  C        23.7729669380       18.9023584279       12.6470785998
  C        22.7899935761       17.9224401111       12.4026846383
  C        23.0475101302       16.9428734248       11.4265819677
  C        24.2652696484       16.9159285432       10.7492683327
  C        21.5271581526       17.9042068059       13.1769869834
  C        21.5519627766       17.8965295514       14.5985491967
  C        22.7707007764       17.7805397998       15.3400349169
  C        14.0465449398       17.8286579327       10.2893683707
  C        15.3502737660       17.8852695632       11.0157385514
  C        15.6068269489       18.8889661401       11.9629247992
  C        16.8153658692       18.9097269587       12.6565901135
  C        17.8017396555       17.9295894930       12.4254352672
  C        17.5497744898       16.9499002567       11.4463782135
  C        16.3407626913       16.9245916442       10.7541598786
  C        19.0710022632       17.9130897680       13.1942174066
  C        19.0705811169       17.9120350923       14.6167258105
  C        17.8639524326       17.8149906253       15.3787492373
  C        46.8067666713       17.2203588056       10.1598920098
  C        45.5192228040       17.1644066461       10.9087658405
  C        45.3137131640       16.1923037336       11.8997554263
  C        44.1339549443       16.1816834872       12.6388384478
  C        43.1309600112       17.1431524816       12.4077894876
  C        43.3339937188       18.0950719950       11.3906411755
  C        44.5144146651       18.1098243448       10.6528995317
  C        41.8784418047       17.1601954043       13.1957776881
  C        41.8828251224       17.1605176238       14.6173115898
  C        43.0911756409       17.2535846194       15.3770545635
  C        20.3178358596       17.9230358998       15.3243307124
  C        20.2947167317       17.8923542351       12.5112234772
  C        46.7862575054       17.2307978863        5.8907183685
  C        45.4823620862       17.1258057010        5.1779830408
  C        45.2638655377       16.1321010145        4.2120645216
  C        44.0756420998       16.1097195647        3.4863959789
  C        43.0777132759       17.0777613371        3.7106641319
  C        43.2856986127       18.0395676373        4.7165951455
  C        44.4751585673       18.0687486057        5.4368645258
  C        41.8331039640       17.1071728620        2.9128759632
  C        41.8598859621       17.1314222312        1.4924803573
  C        43.0802999574       17.2372309953        0.7536076283
  C        46.1533677947       26.6372684959        0.7263166942
  C        46.1625531808       26.6561369857        3.5359532281
  C        14.0461597339       17.8320863702        5.7089499158
  C        15.3677719219       17.9071971376        5.0195063736
  C        15.6422142476       18.9236279225        4.0922552619
  C        16.8718270721       18.9615489182        3.4384907929
  C        17.8549625092       17.9822003462        3.6857585075
  C        17.5874483763       16.9949146313        4.6515645027
  C        16.3599022810       16.9564942496        5.3089727165
  C        19.1223048065       17.9574288568        2.9164802383
  C        19.0973010868       17.9333158162        1.4949520744
  C        17.8770199276       17.8243567000        0.7549260452
  C        28.8080541117       14.0907863111       10.3905831206
  C        28.1934891010       12.9168525204       11.0763177674
  C        28.9155506591       12.1759977579       12.0233510619
  C        28.3153409815       11.1014756944       12.6745554372
  C        26.9789325376       10.7450794470       12.4033082571
  C        26.2786050003       11.4662049715       11.4197083881
  C        26.8769068460       12.5405289714       10.7662304498
  C        26.3089651502        9.6662415884       13.1647067983
  C        26.2960280943        9.6925779694       14.5857365654
  C        26.8026894905       10.8038924002       15.3318292478
  C        32.1792256499       21.2445519668       10.1420450959
  C        32.7751007386       22.4109093670       10.8604457308
  C        32.0250931302       23.0900687851       11.8328377311
  C        32.5951201004       24.1288831409       12.5623843677
  C        33.9308139051       24.5156935504       12.3401363612
  C        34.6635356299       23.8550237473       11.3362694802
  C        34.0956138437       22.8109044968       10.6084781344
  C        34.5592071795       25.5905324963       13.1411841304
  C        34.5504450918       25.5622488030       14.5626923919
  C        34.0375399403       24.4489965826       15.3007480892
  C        25.6842764130        8.6156304894       15.3041425218
  C        25.6723365565        8.6158165595       12.4910877743
  C        32.1028555700       21.2315811996        5.8859894350
  C        32.6947951737       22.3825904729        5.1413988422
  C        31.9582166596       23.0471127460        4.1485275843
  C        32.5395710406       24.0747190604        3.4093235827
  C        33.8710524099       24.4689231930        3.6462456879
  C        34.5904922671       23.8182863211        4.6668679942
  C        34.0141851005       22.7843460457        5.4003506545
  C        34.5110858405       25.5497965858        2.8615806901
  C        34.5245361950       25.5419455194        1.4397961479
  C        34.0240666771       24.4398824171        0.6775103642
  C        40.6231975872       17.1373711153        0.7682924828
  C        40.6024400113       17.1300268623        3.5775768367
  C        28.7337632467       14.0634452468        5.8206338563
  C        28.1216916749       12.9202209415        5.0804625381
  C        28.8635856818       12.2067460698        4.1265063694
  C        28.2798253410       11.1543945266        3.4252047763
  C        26.9394356775       10.7862074024        3.6567856797
  C        26.2145134402       11.4853580906        4.6398673249
  C        26.7955993951       12.5406201305        5.3402806170
  C        26.2979231803        9.6958976017        2.8835584572
  C        26.2928099581        9.7072591139        1.4620080408
  C        26.7997933729       10.8118045633        0.7078954612
  C        18.1353429474        3.1810667005       10.3172050827
  C        17.4061048531        4.2782746055       11.0158073823
  C        16.3904169946        3.9999492262       11.9433775677
  C        15.7427326906        5.0399600673       12.6068480292
  C        16.0946447749        6.3836790809       12.3671072519
  C        17.0839661800        6.6531614083       11.4032645169
  C        17.7330111441        5.6157939841       10.7382246299
  C        15.4703797049        7.4913929211       13.1301461093
  C        15.4856653395        7.4906710137       14.5518523134
  C        16.1871903900        6.4970342867       15.3050220341
  C        42.9459629864       31.8595297809       10.0729236978
  C        43.6463559401       30.7718928267       10.8168542066
  C        44.5918368123       31.0932291726       11.8029747016
  C        45.1975515444       30.0876863368       12.5506345532
  C        44.8711982880       28.7346047097       12.3357342961
  C        43.9454621682       28.4202586356       11.3224339921
  C        43.3366359392       29.4253904851       10.5743946973
  C        45.4887620951       27.6553096468       13.1389346628
  C        45.4929125508       27.6809677594       14.5606255182
  C        44.8058474469       28.6890283700       15.3072522556
  C        14.8567639932        8.5631945660       15.2642173706
  C        14.8751679180        8.5631973968       12.4515520301
  C        42.9465280275       31.9615940056        5.8089917685
  C        43.6918043636       30.8855032691        5.0955688753
  C        44.6562592334       31.1914301019        4.1231296369
  C        45.2778046524       30.1718512919        3.4054214392
  C        44.9541999193       28.8215066504        3.6431811412
  C        44.0209112810       28.5238317034        4.6541474618
  C        43.3926303142       29.5405844942        5.3663199845
  C        45.5632046226       27.7241185630        2.8579113964
  C        45.5334442762       27.7174455254        1.4366145176
  C        44.8271223349       28.7076688812        0.6836471232
  C        35.1330485252       26.6331123538        0.7355483631
  C        35.1227849923       26.6071168527        3.5453617585
  C        18.1484933314        3.2470489011        5.7065584890
  C        17.4299544821        4.3438429377        4.9972799870
  C        16.4147834108        4.0525938236        4.0736543791
  C        15.7665042087        5.0832497829        3.3982907613
  C        16.1211463169        6.4284842478        3.6210911351
  C        17.1124723927        6.7118377994        4.5784154514
  C        17.7601085154        5.6829074803        5.2581711565
  C        15.4907029367        7.5241973264        2.8486551485
  C        15.4966376039        7.5075598140        1.4275285299
  C        16.1933896069        6.5058476744        0.6808345243
  H        10.6725743320       12.4658880841        3.9045153416
  H        11.6948532047       10.5510983420        2.6625916911
  H        15.3918791389       11.1688235945        4.7721417757
  H        14.3513767559       13.0716027052        6.0173297908
  H        13.3766868254       11.6314338404        1.2013360775
  H        50.3229519187       22.7485611294        3.9869665603
  H        49.3198031963       24.6230536582        2.6809496876
  H        45.6422239380       24.1610878147        4.8636230647
  H        46.6631857442       22.2901129880        6.1718557838
  H        47.6298421522       23.5759053862        1.2462794362
  H        14.8721984699        8.5883926582        4.6085547934
  H        50.2872052373       22.7027576978       12.0603174223
  H        49.2692080365       24.5756328520       13.3603907007
  H        45.6104720081       24.1090500211       11.1462851299
  H        46.6526474420       22.2537002960        9.8320151020
  H        47.6077660864       23.5518329267       14.7969052452
  H        40.6624325865       17.1421937125       11.4276408601
  H        48.6870849230       14.0949658051        7.8000247718
  H        10.6814781157       12.4666417596       12.0932631748
  H        11.6898484529       10.5247647148       13.2970263854
  H        15.3938505038       11.1593140283       11.2057705013
  H        14.3652372111       13.0876792368        9.9904849430
  H        13.3763857022       11.6224238503       14.7530969408
  H        47.9301993836       14.2184472401        9.7108894347
  H        47.7801439826       14.3738417662        6.4952215722
  H        49.0844445235       18.5526546679       10.8676453573
  H        10.4161565570       14.1342757332        7.9986987918
  H        24.4804648645        3.0323766171        3.9136495073
  H        25.6145597123        4.8950752346        2.6860608285
  H        23.2356631598        7.7552803789        4.8445770736
  H        22.1199503937        5.8830280249        6.0735633036
  H        23.7993320452        5.7959579236        1.2618782712
  H        36.3769031878       32.1871267764        3.9672891834
  H        35.2540500282       30.3612268733        2.6871759854
  H        37.5197081582       27.4396657665        4.8857876748
  H        38.6225480666       29.2783189860        6.1746234994
  H        37.0294643692       29.4494304853        1.2727778750
  H        25.7168279656        8.6187246618        4.6488317001
  H        36.4576417383       32.2436483887       12.1115574789
  H        35.3447990887       30.4259620664       13.4071836460
  H        37.5250999348       27.4887230252       11.1426811958
  H        38.6127955710       29.3182027175        9.8347705913
  H        37.0468913466       29.4698796971       14.8243292742
  H        46.1094432278       26.5875703203       11.3856286862
  H        44.6682846184       35.1162068238        7.8139263319
  H        24.4340595953        3.0414909270       12.0876656812
  H        25.5633543713        4.8829279881       13.3382140688
  H        23.1621761450        7.7684667767       11.2395584453
  H        22.0444029405        5.9150483274        9.9890863042
  H        23.7812062801        5.7962330176       14.8130204835
  H        44.9538374375       34.3903358423        9.6951328816
  H        44.9017823289       34.2067965199        6.4906310686
  H        40.6661564074       33.2091552051       10.8531824349
  H        23.1502891139        1.9579290890        8.0050703571
  H        25.8243931414       19.6499842380        3.9070004385
  H        23.6523393418       19.6972515024        2.6776483335
  H        22.3548416897       16.2226125708        4.8547836928
  H        24.5304256258       16.1924408080        6.0822549447
  H        23.7245938591       17.6684802883        1.2459710781
  H        35.1550222477       15.4530444923        3.9950017291
  H        37.2750700969       15.4211020073        2.6730614407
  H        38.6987885237       18.8127538479        4.9027464876
  H        36.5732230463       18.8265765175        6.2236965522
  H        37.2297515969       17.4081514555        1.2487355137
  H        20.3623383671       17.9806068084        4.6707429853
  H        35.2119680324       15.4604659043       12.0709236927
  H        37.3455777053       15.4156251971       13.3728220038
  H        38.7378398828       18.8484682295       11.1870022769
  H        36.6006934827       18.8727446018        9.8826620039
  H        37.2492588885       17.4151951996       14.7960627667
  H        35.1470864240       26.6858492581       11.3941353324
  H        28.5042792418       21.0836075818        7.9728900700
  H        25.7518353071       19.6313348147       12.1562293160
  H        23.5681342084       19.6858998929       13.3734571940
  H        22.2967511373       16.1796577777       11.2320186325
  H        24.4803404733       16.1479207356       10.0100645515
  H        23.7012899598       17.6533467784       14.7950105524
  H        29.0053324229       21.7220500253        9.7592690804
  H        29.1656222476       21.7406539942        6.6258027338
  H        32.0897005725       18.5708432898       10.9857913424
  H        27.3974750835       19.0706424062        8.0770542413
  H        14.8487323651       19.6486045570       12.1400379926
  H        17.0105620929       19.6945243763       13.3842730735
  H        18.3007912650       16.1852115630       11.2588000134
  H        16.1350352872       16.1550186245       10.0139512198
  H        16.9210057814       17.6999678339       14.8521559078
  H        46.0953530686       15.4588970359       12.0834819397
  H        43.9738414279       15.4201985895       13.3989317984
  H        42.5670689148       18.8451368258       11.2089609829
  H        44.6887411761       18.8588170004        9.8840390948
  H        44.0332065200       17.3693377652       14.8486840599
  H        20.2880313451       17.9209866109       11.4230632009
  H        46.0410120749       15.3930438465        4.0310876296
  H        43.9080732903       15.3398816789        2.7363053364
  H        42.5189794842       18.7903619430        4.8959510001
  H        44.6589505028       18.8308574535        6.1901030035
  H        44.0140638031       17.3392541936        1.2989439508
  H        46.1994810019       26.6826882017        4.6233968194
  H        52.7412493023       21.0626343390        8.1946935866
  H        14.8820310766       19.6776942187        3.9004640376
  H        17.0834829724       19.7527023787        2.7223947380
  H        18.3377064038       16.2323951383        4.8505432428
  H        16.1383577635       16.1811946759        6.0383725416
  H        16.9438373517       17.7165486043        1.2995336377
  H        52.3225237180       21.6733061815        6.2942479232
  H        52.0132213211       21.7020486880        9.4956053729
  H        49.0677643134       18.6077162707        5.2040874518
  H        13.2478285791       19.0160751959        7.9774524287
  H        29.9442137307       12.4582303858       12.2357146701
  H        28.8765435184       10.5253333963       13.4070395501
  H        25.2459528735       11.2004283754       11.2031217214
  H        26.3344600180       13.1191396468       10.0225327083
  H        27.1690770875       11.6712041074       14.7909647717
  H        30.9991696988       22.7770742546       12.0114011861
  H        32.0086313036       24.6555523083       13.3120936110
  H        35.6973550107       24.1449343834       11.1597420660
  H        34.6663007288       22.2746418001        9.8537111996
  H        33.6776623270       23.5826239866       14.7532614013
  H        25.7029597853        8.5964499288       11.4031129735
  H        30.9313716787       22.7401669772        3.9638249376
  H        31.9615469163       24.5913728876        2.6461366536
  H        35.6211217787       24.1119700237        4.8551871180
  H        34.5746841153       22.2593440175        6.1704223029
  H        33.6538782080       23.5661620398        1.2061461189
  H        40.5947758948       17.0851597440        4.6649457584
  H        32.5194659928       14.1434159743        8.2627640788
  H        29.9012588171       12.4849144887        3.9564247961
  H        28.8617302361       10.5975256001        2.6939128989
  H        25.1776220726       11.2125621704        4.8253094327
  H        26.2331258321       13.0970050920        6.0864280047
  H        27.1624618362       11.6853773170        1.2417293504
  H        33.2978816302       14.1867017415        6.4374787241
  H        33.4089492568       14.4076151421        9.6103750372
  H        32.1853216212       18.6092011042        5.2597565703
  H        30.2238109379       14.1886950802        8.0815170678
  H        16.1183445947        2.9634578577       12.1298231770
  H        14.9532899375        4.8206351710       13.3225319576
  H        17.3663851224        7.6860306870       11.2100985543
  H        18.5149929093        5.8184358041       10.0103188156
  H        16.7537633793        5.7397027016       14.7715310264
  H        44.8280893792       32.1403138118       11.9771888077
  H        45.9373980375       30.3414429287       13.3065983269
  H        43.6828821505       27.3781721105       11.1522388660
  H        42.6001190835       29.1900280243        9.8096428878
  H        44.2305337415       29.4368274451       14.7689479131
  H        14.8513980274        8.5464597908       11.3633319383
  H        44.8996958177       32.2341182376        3.9315820031
  H        46.0246177764       30.4130906902        2.6520948690
  H        43.7641728046       27.4840778753        4.8458862714
  H        42.6463310998       29.3177593263        6.1249526866
  H        44.2686447658       29.4705878061        1.2182169812
  H        35.0819220396       26.6187936798        4.6328958932
  H        36.6050759312       35.1341007576        8.1806115320
  H        16.1436989612        3.0130266442        3.9038849198
  H        14.9741985463        4.8564567708        2.6881685820
  H        17.3959534505        7.7473031192        4.7553607261
  H        18.5429407813        5.8933557026        5.9829786605
  H        16.7648192342        5.7556032354        1.2192676967
  H        36.2783380240       34.4827413310        6.2730649374
  H        36.3806425149       34.2093149383        9.4996645970
  H        40.5806729850       33.2027776273        5.1534937713
  H        17.4705755744        1.9475577512        7.9741427038
  H        29.0901313678       19.5324607165       12.4950227744
  H        29.7440125813       19.6489558491        3.5614733395
  H        30.6015500332       15.4923240938        3.9708787655
  H        31.0887632765       15.5805466444       12.4691547883
  H        27.9752204047       18.2678865464       14.8148882833
  H        29.1564610532       15.5244975997       14.5953558189
  H        31.6201597222       19.8600565686        1.5972081086
  H        32.1026597280       15.9475160041        1.9218880195
  H        32.3043635171       18.4724157770       14.4788340425
  H        18.8536465212        0.8690753081       12.3353046982
  H        40.5278458720       35.2289391969        3.9520248963
  H        42.3243118335       34.4191388752        3.5902891980
  H        22.0877685401        0.6923662175       12.3515643656
  H        11.5968806874       18.7131665037       12.3825723523
  H        52.2650071503       18.4312740025        3.6771924569
  H        49.2552727810       16.4771411775        3.5845963220
  H        10.1509855437       15.7981670920       12.2924602122
  H        50.8502242542       17.6923937490        3.9542511823
  H        10.0465074037       17.3945314167       12.0519531540
  H        20.2149750431        0.0023589115       12.0419636791
  H        39.1835528130       36.1243348182        3.6864250489
 Ni        30.8599834664       17.7215851921        2.9910118488
 Ni        31.0282639473       16.5935053747       -0.2415240256
 Ni        30.0560223831       18.8664378090        0.0009056344
 Ni        30.0559778461       17.5511038773       13.2376995253
  O        10.6500127511       14.3650735508        5.4858184912
  O        12.6132235583       14.6575018700        6.5839060980
  O        49.1481679584       16.8458670196        7.9897350693
  O        50.3503114250       20.9358769119        5.6480363589
  O        48.3485895846       20.5933752940        6.6659020804
  O        11.0518516044       17.0538083066        6.5007205284
  O        50.3210524044       20.8816999687       10.4068682518
  O        48.3467653407       20.5868338624        9.3271701452
  O        49.5438510333       18.2484253725       10.0682821237
  O        12.3592092702       18.6246296934        7.9996913404
  O        48.6932785422       14.1485344248        6.7513086096
  O         8.2098961209       14.2103664081        9.3225537541
  O        10.7354355092       14.5067153856       10.6643283135
  O        12.5718642466       14.5828293640        9.3284852483
  O        22.8444204510        2.0431225083        5.4872644411
  O        21.6049604969        3.5919454839        6.5901689229
  O        42.0583267445       34.1374415180        7.9790061362
  O        37.9818517293       33.1383303680        5.5726448657
  O        39.2183667296       31.5764343147        6.6669122893
  O        20.3084210213        1.0396066988        6.5020482842
  O        38.0249401833       33.1863581461       10.4149982296
  O        39.2192584836       31.5839325868        9.3263008617
  O        40.6523430378       33.7694186925       10.0602759037
  O        18.2552206598        1.3763325161        7.9967884724
  O        44.6222351767       35.1005468872        6.7587394159
  O        24.2054366752        0.0000035912        9.3207981249
  O        22.7528951341        2.0577278393       10.5836985722
  O        21.6241033205        3.5957213187        9.3420073899
  O        27.5007922149       18.7541948284        5.4976328055
  O        26.7669732934       16.9340066708        6.6540088112
  O        30.6679285672       19.4084440082        8.0694268343
  O        33.5889801407       16.2785015266        5.6680482485
  O        34.2758010343       18.1704318541        6.7372555653
  O        29.5756028319       17.0663489769        6.5809548312
  O        33.6189776597       16.3296217264       10.4138093655
  O        34.3065755057       18.2468926196        9.4075842939
  O        31.6522616348       18.3156605422       10.1573235897
  O        30.3228999341       15.1547353216        8.0887346319
  O        28.5543905364       21.0339428133        6.9023563547
  O        28.5124441920       20.9593304036        9.4114268125
  O        27.4547356390       18.6781020707       10.6588979610
  O        26.6936778530       16.9281715559        9.4124561010
  O        13.1486028136       18.6929689514       10.5874593904
  O        13.9194602826       16.9162996564        9.4052152780
  O        50.5964789195       19.3503047743        8.0204323656
  O        47.6836012802       16.3270352134       10.4173085128
  O        46.9524301364       18.1760535581        9.3241418500
  O        11.0699467332       17.0154426630        9.4896316160
  O        47.6764705944       16.3354349768        5.6532196937
  O        46.9284816691       18.2357643778        6.6653337246
  O        49.5689355599       18.3177125300        5.9822885320
  O        10.3187197858       15.1001153885        7.9970928888
  O        52.6707758192       21.0278875570        9.2418191862
  O        12.1468555136       20.8912135899        6.6732413117
  O        13.1084063549       18.6136161806        5.3255877843
  O        13.9573695507       16.9870780966        6.6653385915
  O        29.9918535563       14.4401987275       10.7313384592
  O        28.0891043103       14.6540133688        9.4941406886
  O        32.1425259178       16.8598807367        8.0910287407
  O        30.9669317224       20.9570117476       10.4061155218
  O        32.9486514212       20.6029432223        9.3394950092
  O        29.5669756751       17.0769939282        9.5762806707
  O        30.8727264048       20.9504264154        5.6651448423
  O        32.8786026853       20.5858698077        6.6655266983
  O        31.6904342152       18.2514274344        6.0117608433
  O        28.2847046231       18.6763241715        8.0785987787
  O        32.4941641944       14.2131578500        9.3339000960
  O        32.4082381738       14.2074271761        6.8274152411
  O        29.9111164730       14.4339933484        5.4894796735
  O        28.0375172659       14.5864758683        6.7547467805
  O        17.8892247641        1.9666554651       10.6628430081
  O        18.9561860392        3.5271519556        9.4080108252
  O        39.1686908465       34.1389208734        7.9972119764
  O        43.2802479523       33.0589830130       10.3317050931
  O        42.0345709305       31.5064542723        9.2416443858
  O        20.3176967953        1.0367538611        9.4802042836
  O        43.2760889855       33.1825984005        5.5748952462
  O        42.0052917764       31.5841174712        6.5829827312
  O        40.5790556157       33.7750527351        5.9359002077
  O        22.3672975576        1.3845376558        7.9979331996
  O        36.6727295578       35.0998330926        9.2332562853
  O        16.4455264093        0.0643308195        6.6683154724
  O        17.9364907771        2.0433808206        5.3263515890
  O        18.9189611356        3.5931442208        6.6659037937
  O        29.9457620192       18.9042485765        4.1586174541
  O        29.7784254179       19.0517945440       11.9969449953
  O        31.2627784599       16.1850984040        4.1660996841
  O        31.2920869708       16.4166959363       12.0052584462
  O        31.7759761142       16.7721038771        1.5162874670
  O        30.0385603521       15.8269622376       14.3246353994
  O        31.3937975030       18.1767579670       14.6446738119
  O        30.7954544934       19.3519098516        1.6653456713
  O        28.8192981651       18.6776718905       14.5659864067
  O        39.4566764529       35.2436930407        4.0019689024
  O        19.1415881647        0.0046246792       11.9905526521
  O        41.9695177605       35.1726585995        4.0871563746
  O        21.6914278480       -0.0691278996       11.8959845751
  O        51.3651863540       18.6143045956        4.0054100109
  O        10.7511143282       18.7472140000       11.9049396354
  O        50.0797776372       16.4127971857        4.0917117996
  O         9.5249436262       16.4829796911       11.9912122990
 Zr         9.2973366952       16.0527069801        6.1825315167
 Zr        49.8366556023       16.0066259448        9.7463334465
 Zr        22.0733214194        0.0299353108        6.1890277721
 Zr        42.4610482440       35.1535924025        9.8009990133
 Zr        29.6070896813       19.0931166123        6.3094396716
 Zr        29.5749944860       19.1788407846        9.8672322377
 Zr        11.0384617911       19.0518155042        9.8277295684
 Zr        11.0444213138       19.1546978657        6.2508965264
 Zr        31.3505486332       16.1031981878        9.8942234461
 Zr        31.4110861820       16.0082099164        6.3217742898
 Zr        18.6012056037       -0.0009976348        9.7633664166
 Zr        18.5065260527       -0.0073472079        6.2138152693
 Zr        12.3026446983       16.3236869918        7.9902816457
 Zr        48.6172465853       18.8331999628        8.0102676707
 Zr        20.3148628585        2.4734701357        7.9905498488
 Zr        40.6438293795       32.6874143250        7.9783264991
 Zr        28.3447800321       16.3457682071        8.0842002892
 Zr        32.6341768283       18.8383206129        8.0660956555
  H        29.6125321247       17.2363279822        2.4749184319
