     571
 i =      150, E =     -4761.6403501644
  C        11.8587934864       14.0536499693        5.7415301625
  C        12.4563348140       12.8907338824        5.0231719091
  C        11.7045441910       12.1715918598        4.0817593328
  C        12.2809502511       11.1094029678        3.3894045063
  C        13.6216207291       10.7398579807        3.6169471908
  C        14.3549314150       11.4437202531        4.5900783434
  C        13.7820248338       12.5087047854        5.2815681440
  C        14.2611217183        9.6491310536        2.8435975385
  C        14.2564702783        9.6570311320        1.4218995973
  C        13.7434338492       10.7592287366        0.6680129163
  C        49.1269114609       21.2331010437        5.8796538323
  C        48.5501890045       22.4011351792        5.1526228147
  C        49.3002596492       23.0684702358        4.1716727009
  C        48.7333657451       24.1076474755        3.4384818643
  C        47.4028239093       24.5092849383        3.6670789267
  C        46.6718354759       23.8604183921        4.6805696617
  C        47.2342579704       22.8154869350        5.4099084641
  C        46.7725536768       25.5869678227        2.8697987673
  C        46.7615084711       25.5573657297        1.4480332014
  C        47.2615312998       24.4423183518        0.7045281975
  C        14.8603055652        8.5706247823        0.7086548088
  C        14.8917687125        8.5971257366        3.5202654727
  C        49.1132064255       21.2033777158       10.1453396952
  C        48.5278006821       22.3647653562       10.8725045739
  C        49.2671037564       23.0255471257       11.8653116828
  C        48.6907936950       24.0601173638       12.5967759745
  C        47.3603419449       24.4568073094       12.3586444044
  C        46.6398497931       23.8118189068       11.3352301695
  C        47.2133818957       22.7758982866       10.6034417510
  C        46.7218989793       25.5317833073       13.1496805614
  C        46.7336486921       25.5281582718       14.5713865535
  C        47.2492222273       24.4290088477       15.3277668929
  C        40.6184577403       17.1097399101       15.3143353034
  C        40.6329304805       17.1263864742       12.5041312145
  C        11.8830118586       14.0866433287       10.2854737809
  C        12.4723939159       12.9108931148       10.9898054909
  C        11.7148234155       12.1774849421       11.9156967962
  C        12.2814613583       11.0950574107       12.5841261312
  C        13.6203825004       10.7215857814       12.3525033911
  C        14.3584638657       11.4374277652       11.3920036608
  C        13.7929875811       12.5185813105       10.7193124952
  C        14.2539411107        9.6247575324       13.1228636465
  C        14.2526898646        9.6447114083       14.5447007718
  C        13.7429196716       10.7537177809       15.2917581400
  C        22.5104264294        3.2438589232        5.7528435533
  C        23.2225001111        4.3494354957        5.0516131261
  C        24.2186496545        4.0697437583        4.1046408659
  C        24.8434105961        5.1096799050        3.4213924681
  C        24.4873316583        6.4509058337        3.6653693676
  C        23.5190374668        6.7222421785        4.6490168997
  C        22.8896938797        5.6840647475        5.3306456312
  C        25.0929066097        7.5570459152        2.8898945129
  C        25.0685214964        7.5489761247        1.4684886019
  C        24.3647922108        6.5509573130        0.7221304457
  C        38.3025701386       31.9293278500        5.8491921191
  C        37.5731761973       30.8392968362        5.1402653426
  C        36.6140130368       31.1419812884        4.1617408315
  C        35.9975446978       30.1208106842        3.4440234880
  C        36.3253561936       28.7718886549        3.6833863093
  C        37.2545433186       28.4766768528        4.6986463619
  C        37.8752555434       29.4965440956        5.4150716525
  C        35.7241772453       27.6796526386        2.8858810380
  C        35.7565173528       27.6950126985        1.4645602117
  C        36.4632828605       28.6972497033        0.7279293253
  C        25.6963787447        8.6163379479        0.7490680466
  C        25.6882922771        8.6324271930        3.5611219420
  C        38.3289942557       31.9621923679       10.1563634515
  C        37.6080725219       30.8890829089       10.8986390313
  C        36.6805423869       31.1977997123       11.9053689201
  C        36.0711331397       30.1792170683       12.6353034821
  C        36.3749405864       28.8266776295       12.3817297721
  C        37.2801128171       28.5279683908       11.3449701540
  C        37.8917837803       29.5430112524       10.6164387363
  C        35.7670431498       27.7274091175       13.1655272819
  C        35.7781965261       27.7196746425       14.5874941914
  C        36.4733071968       28.7093111923       15.3511747507
  C        46.1355921436       26.6207611355       15.2815367601
  C        46.0878685821       26.5801041354       12.4736378108
  C        22.4602844094        3.2554258176       10.2570629571
  C        23.1538352750        4.3644191893       10.9796302893
  C        24.1566501014        4.0786153440       11.9195868247
  C        24.7841174311        5.1091102238       12.6152395194
  C        24.4286990243        6.4545421017       12.3930972538
  C        23.4489348320        6.7337171343       11.4216671115
  C        22.8167464112        5.7033943546       10.7265985654
  C        25.0595953577        7.5522045779       13.1672858845
  C        25.0520794246        7.5457903577       14.5898562280
  C        24.3549347164        6.5507071263       15.3453721448
  C        26.6216607111       17.8654689670        5.7852297172
  C        25.3146390183       17.9079725727        5.0602823158
  C        25.0673975698       18.8893781692        4.0875485144
  C        23.8540115145       18.9119867605        3.4025659534
  C        22.8523629251       17.9549875556        3.6650996643
  C        23.0973631902       16.9956948365        4.6659957104
  C        24.3118072357       16.9688280240        5.3504974428
  C        21.5794368293       17.9402271482        2.9002805583
  C        21.5785677490       17.9148479145        1.4774362905
  C        22.7832961340       17.7861343073        0.7163802642
  C        34.4217689188       17.2226937481        5.9123942975
  C        35.7125105912       17.1599449341        5.1653194619
  C        35.9151203155       16.1888902676        4.1724182182
  C        37.0981459215       16.1681416111        3.4380919244
  C        38.1120365812       17.1168118127        3.6768405874
  C        37.9120800789       18.0676285278        4.6958726629
  C        36.7267635005       18.0937468753        5.4269969578
  C        39.3678993348       17.1212536175        2.8911707810
  C        39.3630152607       17.1339760980        1.4692087943
  C        38.1557793601       17.2580434032        0.7119617671
  C        20.3317077730       17.9344912610        0.7690221039
  C        20.3540475162       17.9455232694        3.5821216243
  C        34.4208803158       17.2127398519       10.2252127531
  C        35.7304534223       17.1284378937       10.9335386648
  C        35.9476483551       16.1571737646       11.9223033849
  C        37.1438388931       16.1365105222       12.6343443115
  C        38.1511496042       17.0880404585       12.3800860492
  C        37.9407753061       18.0311164502       11.3565460052
  C        36.7441703604       18.0552667244       10.6453042349
  C        39.4020962849       17.1132339121       13.1704520992
  C        39.3806122850       17.1313867861       14.5920351306
  C        38.1642229026       17.2554744842       15.3351576023
  C        35.1472385751       26.6404551484       15.2909147143
  C        35.1753472818       26.6580710205       12.4817133326
  C        26.5698392019       17.8289372241       10.3250204796
  C        25.2547722365       17.8758070094       11.0297329048
  C        24.9912435529       18.8802002967       11.9734631818
  C        23.7742842858       18.9049885033       12.6488868250
  C        22.7906749343       17.9260538654       12.4030271679
  C        23.0479054933       16.9476414761       11.4256483896
  C        24.2660274003       16.9201506649       10.7492987455
  C        21.5275049391       17.9072881984       13.1767919733
  C        21.5519596921       17.8977529684       14.5983647309
  C        22.7702195302       17.7788107889       15.3399084630
  C        14.0467360909       17.8290535833       10.2890721086
  C        15.3506618873       17.8866302807       11.0147264602
  C        15.6061927031       18.8896562543       11.9629433060
  C        16.8147816586       18.9111525117       12.6564241230
  C        17.8023711667       17.9324720623       12.4241453988
  C        17.5515440642       16.9537946288       11.4437296269
  C        16.3424558066       16.9276690306       10.7517013605
  C        19.0713983786       17.9161309806       13.1932454050
  C        19.0705867117       17.9142069617       14.6158287216
  C        17.8638257170       17.8168746372       15.3775954578
  C        46.8026671971       17.2179876035       10.1583635985
  C        45.5102693929       17.1530099969       10.9018540742
  C        45.3048613090       16.1752000072       11.8876929233
  C        44.1215132647       16.1532084215       12.6215808900
  C        43.1122335947       17.1089770509       12.3925286515
  C        43.3146483200       18.0658489262       11.3793953511
  C        44.4988565341       18.0917980002       10.6464421682
  C        41.8581987000       17.1176509519       13.1816159800
  C        41.8646453323       17.1210916096       14.6040920124
  C        43.0736337259       17.2184205431       15.3625536850
  C        20.3176474426       17.9246350713       15.3238325324
  C        20.2953228615       17.8961866425       12.5105562960
  C        46.7835787410       17.2320835261        5.8872419260
  C        45.4798689516       17.1274270285        5.1698849587
  C        45.2610932976       16.1310886226        4.2062069791
  C        44.0722606349       16.1040792295        3.4806222466
  C        43.0711615129       17.0704031070        3.7005206727
  C        43.2807431658       18.0369406479        4.7021392354
  C        44.4706992720       18.0702927336        5.4228944518
  C        41.8233957142       17.0920516710        2.9040669850
  C        41.8469955046       17.1067039808        1.4825568042
  C        43.0653334958       17.2089131908        0.7395847313
  C        46.1533947653       26.6372007149        0.7262957639
  C        46.1625571906       26.6560578585        3.5359341207
  C        14.0462430577       17.8325042294        5.7090736388
  C        15.3676381145       17.9086683044        5.0197240480
  C        15.6402942460       18.9243950594        4.0911187507
  C        16.8695407224       18.9632939097        3.4367923755
  C        17.8541715560       17.9856777623        3.6849525622
  C        17.5885105817       16.9993626052        4.6523226071
  C        16.3612929564       16.9598694517        5.3102114777
  C        19.1213842668       17.9612840681        2.9155810504
  C        19.0966999135       17.9357775424        1.4940865185
  C        17.8766704558       17.8264396793        0.7538107725
  C        28.8081803186       14.0901326531       10.3905228167
  C        28.1960541599       12.9157624322       11.0765891169
  C        28.9257211286       12.1609625334       12.0067990425
  C        28.3262554122       11.0863911692       12.6588531904
  C        26.9836280137       10.7423404827       12.4033080394
  C        26.2751883123       11.4767042955       11.4355744297
  C        26.8722217990       12.5520442532       10.7826375796
  C        26.3154585937        9.6621947530       13.1649666649
  C        26.3070820272        9.6864417483       14.5859343541
  C        26.8200712006       10.7950240311       15.3317545265
  C        32.1786402771       21.2380821289       10.1504889562
  C        32.7719803543       22.4057615499       10.8660645687
  C        32.0242506067       23.0851734787       11.8401448027
  C        32.5953152357       24.1254120989       12.5667250380
  C        33.9297847039       24.5140495609       12.3401467839
  C        34.6595231623       23.8544094166       11.3332659666
  C        34.0908732522       22.8088653812       10.6085022262
  C        34.5601945973       25.5882898607       13.1407627417
  C        34.5536035227       25.5581597477       14.5623954030
  C        34.0440589117       24.4429332465       15.2996731468
  C        25.6925600999        8.6111506989       15.3044416529
  C        25.6754500277        8.6140505834       12.4912457549
  C        32.1006466363       21.2240344020        5.8804566648
  C        32.6920488260       22.3732420934        5.1334817651
  C        31.9597747526       23.0308205558        4.1329894797
  C        32.5411129151       24.0611626673        3.3974801548
  C        33.8683404223       24.4639370712        3.6440667087
  C        34.5835138766       23.8190187592        4.6713856565
  C        34.0071281228       22.7834255513        5.4021378798
  C        34.5097240468       25.5454492563        2.8611710996
  C        34.5271714497       25.5366145368        1.4392694341
  C        34.0306830821       24.4331404439        0.6764163243
  C        40.6091348880       17.1066412615        0.7594876605
  C        40.5923371393       17.1166502182        3.5698027662
  C        28.7323250041       14.0595615859        5.8246561722
  C        28.1229055417       12.9157294901        5.0850577183
  C        28.8693981015       12.1995954715        4.1365238681
  C        28.2875591334       11.1471920264        3.4337289253
  C        26.9449941583       10.7823371042        3.6581183897
  C        26.2153962911       11.4848458204        4.6353864252
  C        26.7943348067       12.5398920353        5.3376994849
  C        26.3050339460        9.6918618329        2.8837963830
  C        26.3033928904        9.7018260353        1.4622274691
  C        26.8164740925       10.8035031974        0.7078954690
  C        18.1352171205        3.1809744319       10.3171306102
  C        17.4059136998        4.2781889882       11.0157028112
  C        16.3904299528        3.9998289223       11.9434881897
  C        15.7427051704        5.0398201043       12.6069598723
  C        16.0943848797        6.3835769860       12.3670650356
  C        17.0835068415        6.6530791562       11.4030128951
  C        17.7325904296        5.6157362186       10.7379646334
  C        15.4701359491        7.4912891593       13.1301312823
  C        15.4854065684        7.4905591968       14.5518464349
  C        16.1868628293        6.4968841295       15.3050306131
  C        42.9458897079       31.8594357176       10.0728881352
  C        43.6462101887       30.7717988706       10.8168752087
  C        44.5916722778       31.0931122519       11.8030217337
  C        45.1973659559       30.0875529469       12.5506697750
  C        44.8710044011       28.7344758924       12.3357579270
  C        43.9452246686       28.4201647536       11.3224925839
  C        43.3364062948       29.4253085167       10.5744604868
  C        45.4886121352       27.6551870419       13.1389359457
  C        45.4927890051       27.6808343301       14.5606263600
  C        44.8056108911       28.6888139806       15.3072567892
  C        14.8565547202        8.5631086004       15.2642246970
  C        14.8750103193        8.5631646702       12.4515506859
  C        42.9464770923       31.9614837580        5.8089669960
  C        43.6917428039       30.8853947166        5.0955462560
  C        44.6562090743       31.1913094958        4.1231114646
  C        45.2777383895       30.1717170265        3.4054139004
  C        44.9540873675       28.8213794313        3.6431477377
  C        44.0207229332       28.5237259987        4.6540444808
  C        43.3924371866       29.5404866068        5.3662048615
  C        45.5631422135       27.7239996893        2.8578942300
  C        45.5333636452       27.7173138527        1.4365979870
  C        44.8269099122       28.7074545902        0.6836500634
  C        35.1351139118       26.6286290917        0.7358437266
  C        35.1193464555       26.6038647357        3.5456111518
  C        18.1484332524        3.2469711269        5.7065822380
  C        17.4298166401        4.3437822072        4.9973611002
  C        16.4147835760        4.0525029564        4.0735921064
  C        15.7664565095        5.0831455044        3.3982472176
  C        16.1209303809        6.4284099505        3.6211483519
  C        17.1120849746        6.7117846169        4.5786513666
  C        17.7597607322        5.6828722117        5.2584017565
  C        15.4904997535        7.5241210101        2.8486887923
  C        15.4963977650        7.5074563291        1.4275542619
  C        16.1930776992        6.5057059890        0.6808431932
  H        10.6723315893       12.4655449718        3.9049380355
  H        11.6946296099       10.5507315452        2.6630360245
  H        15.3921000358       11.1694520742        4.7715158136
  H        14.3516163711       13.0722629240        6.0166501977
  H        13.3765542935       11.6313945913        1.2013525529
  H        50.3229762246       22.7484330016        3.9869590337
  H        49.3199055847       24.6229235078        2.6809517092
  H        45.6423475831       24.1612156691        4.8637245672
  H        46.6632424234       22.2902429415        6.1719976782
  H        47.6302114776       23.5759988893        1.2462090779
  H        14.8721110932        8.5884364118        4.6085731010
  H        50.2871931301       22.7027647961       12.0601175407
  H        49.2692613236       24.5756402608       13.3601778167
  H        45.6104094384       24.1089976958       11.1462638460
  H        46.6525203878       22.2536580466        9.8319610518
  H        47.6081046410       23.5519382773       14.7968596305
  H        40.6379600090       17.0892126048       11.4164060934
  H        48.6870409406       14.0952456344        7.7999728541
  H        10.6812652947       12.4663635889       12.0929032222
  H        11.6896524195       10.5244839166       13.2966648570
  H        15.3940381645       11.1598782646       11.2063667308
  H        14.3654473548       13.0882469991        9.9911055976
  H        13.3762541499       11.6223872372       14.7530969961
  H        47.9300887417       14.2189932483        9.7108932061
  H        47.7800244744       14.3742833071        6.4952715385
  H        49.0833468469       18.5522427292       10.8672057485
  H        10.4160427221       14.1344200453        7.9987136829
  H        24.4807746971        3.0313107322        3.9146124397
  H        25.6163211906        4.8932406418        2.6871128702
  H        23.2368348075        7.7549479504        4.8431479579
  H        22.1197840068        5.8833413907        6.0720187362
  H        23.8009324896        5.7960344773        1.2622904725
  H        36.3766466073       32.1849393448        3.9657008997
  H        35.2534996873       30.3588307881        2.6870439165
  H        37.5150043645       27.4378348339        4.8905037249
  H        38.6185155446       29.2766360316        6.1777406292
  H        37.0289966439       29.4462019338        1.2744427719
  H        25.7184444065        8.6177498645        4.6491091180
  H        36.4581317202       32.2420094112       12.1131410599
  H        35.3463360588       30.4238809821       13.4086268487
  H        37.5263683618       27.4877091370       11.1426109495
  H        38.6132232301       29.3175327594        9.8348941995
  H        37.0477913113       29.4670840160       14.8262091601
  H        46.1092627176       26.5874823727       11.3856013734
  H        44.6681461561       35.1161129190        7.8139471660
  H        24.4348723388        3.0404678304       12.0864298236
  H        25.5653641651        4.8810478776       13.3371884942
  H        23.1631999270        7.7680861457       11.2415666702
  H        22.0443076733        5.9154416516        9.9909677603
  H        23.7829432538        5.7960640572       14.8133303710
  H        44.9534591910       34.3900296616        9.6949618685
  H        44.9014584295       34.2066626346        6.4906532819
  H        40.6658854126       33.2088451538       10.8530188178
  H        23.1502968965        1.9576741588        8.0051153421
  H        25.8404661725       19.6260944893        3.8810483918
  H        23.6679947897       19.6803375788        2.6551739748
  H        22.3365679088       16.2473025671        4.8784497384
  H        24.5101825717       16.2148398747        6.1086824857
  H        23.7242317915       17.6632537137        1.2448753998
  H        35.1297548399       15.4597442805        3.9873813955
  H        37.2532617999       15.4074443706        2.6761008667
  H        38.6858304298       18.8087965243        4.8853282123
  H        36.5572441915       18.8426365585        6.1971845741
  H        37.2169183470       17.3869113157        1.2429440689
  H        20.3609047993       17.9887881713        4.6698668146
  H        35.1605530153       15.4363985144       12.1310043558
  H        37.3105761938       15.3801374882       13.3980999305
  H        38.7115306598       18.7718342865       11.1537205234
  H        36.5613110721       18.8017354025        9.8759780948
  H        37.2316940476       17.3818700958       14.7927515643
  H        35.1466137889       26.6853326659       11.3940770175
  H        28.5049771688       21.0808092026        7.9690725796
  H        25.7526847510       19.6345042834       12.1586113930
  H        23.5700862025       19.6876749740       13.3763553695
  H        22.2964584400       16.1855389787       11.2294535270
  H        24.4804501884       16.1526705337       10.0094308445
  H        23.7009964877       17.6501183492       14.7955766417
  H        29.0165024556       21.7177909021        9.7526715614
  H        29.1642315191       21.7415628303        6.6251745295
  H        32.0598437164       18.5582812228       11.0094484377
  H        27.4001942969       19.0747633384        8.0886431017
  H        14.8472120982       19.6481727089       12.1410481565
  H        17.0090976040       19.6953738096       13.3849614956
  H        18.3035420512       16.1903345226       11.2550925782
  H        16.1376543245       16.1587140050       10.0105931195
  H        16.9209697012       17.7016138024       14.8509097666
  H        46.0898523198       15.4456070721       12.0724254010
  H        43.9645213753       15.3869854673       13.3776137454
  H        42.5443036479       18.8122724548       11.1969120609
  H        44.6701163304       18.8455854491        9.8814487236
  H        44.0150966188       17.3322529604       14.8327656516
  H        20.2888791582       17.9260835800       11.4224221741
  H        46.0383419197       15.3915841647        4.0272488795
  H        43.9068465633       15.3302087104        2.7341718555
  H        42.5140083870       18.7882670271        4.8794643053
  H        44.6521727121       18.8358869861        6.1732814792
  H        44.0005212263       17.3143993112        1.2818675786
  H        46.1994524611       26.6826044446        4.6233780802
  H        52.7413321908       21.0627338238        8.1946953877
  H        14.8789418263       19.6771120326        3.8986994165
  H        17.0798137861       19.7539162854        2.7197022669
  H        18.3401464072       16.2384171860        4.8521011776
  H        16.1412011437       16.1852107176        6.0407318796
  H        16.9433495120       17.7185995223        1.2981987097
  H        52.3229755088       21.6734492766        6.2940957494
  H        52.0136136830       21.7023927203        9.4956678007
  H        49.0675404276       18.6076593888        5.2039290664
  H        13.2477018170       19.0161275252        7.9773972366
  H        29.9605502560       12.4308747650       12.2046345706
  H        28.8928213220       10.5001242736       13.3791186379
  H        25.2376326432       11.2203690609       11.2314448469
  H        26.3233367378       13.1409845668       10.0518971136
  H        27.1907174348       11.6602621782       14.7904054340
  H        30.9994910421       22.7721794713       12.0243422738
  H        32.0105803017       24.6505760107       13.3188002581
  H        35.6921743573       24.1457656727       11.1524769197
  H        34.6601961572       22.2740949212        9.8517796363
  H        33.6864329743       23.5753192647       14.7525988084
  H        25.7028108796        8.5965754299       11.4031518743
  H        30.9375928675       22.7154223416        3.9371642125
  H        31.9659054306       24.5719387101        2.6282934131
  H        35.6110708710       24.1184546082        4.8672122020
  H        34.5645079901       22.2637724139        6.1779814041
  H        33.6623568664       23.5578818590        1.2038001470
  H        40.5861677849       17.0793376116        4.6575289566
  H        32.5176820028       14.1510606976        8.2618843298
  H        29.9082340340       12.4769154256        3.9719653957
  H        28.8724598870       10.5875154398        2.7069700188
  H        25.1766223994       11.2149396404        4.8143447733
  H        26.2280401566       13.0993868778        6.0786180596
  H        27.1827300911       11.6756928280        1.2415900846
  H        33.2985333157       14.1942101576        6.4399538055
  H        33.4044912912       14.4019390847        9.6152676935
  H        32.0993383317       18.5373285560        5.1818204846
  H        30.2304670949       14.1905256802        8.0864378118
  H        16.1185263320        2.9633188843       12.1300868168
  H        14.9533626130        4.8204202128       13.3227328568
  H        17.3656842750        7.6859774197       11.2096419338
  H        18.5143884372        5.8184223609       10.0098724282
  H        16.7533659853        5.7394912429       14.7715557545
  H        44.8279204515       32.1401922286       11.9772543622
  H        45.9371982276       30.3412819098       13.3066541858
  H        43.6825632994       27.3780951218       11.1523309964
  H        42.5998265848       29.1899499285        9.8097692222
  H        44.2301478448       29.4365047114       14.7689631309
  H        14.8512478601        8.5464654750       11.3633287122
  H        44.8996713829       32.2339927027        3.9315831482
  H        46.0245432987       30.4129308613        2.6520737238
  H        43.7638608694       27.4839897894        4.8457025341
  H        42.6460392470       29.3176626752        6.1247402806
  H        44.2683020393       29.4702658511        1.2182350837
  H        35.0756571435       26.6162902798        4.6330386202
  H        36.6049614659       35.1339892791        8.1806305726
  H        16.1438146475        3.0129223380        3.9037133435
  H        14.9742262540        4.8562911583        2.6880606515
  H        17.3953776971        7.7472744415        4.7557604690
  H        18.5424274873        5.8933552940        5.9833775249
  H        16.7644383153        5.7554022572        1.2192652302
  H        36.2781247949       34.4827308929        6.2730562932
  H        36.3801976650       34.2094527967        9.4998492199
  H        40.5801117638       33.2023061910        5.1536239488
  H        17.4705383530        1.9472694566        7.9740907843
  H        29.1986766711       19.4942151699       12.5976954728
  H        29.6956800446       19.6209973121        3.6166479180
  H        30.3171571400       15.6355504518        4.0153587839
  H        31.0818486783       15.6293357966       12.5398097222
  H        28.1230545642       18.1492317438       14.7605227717
  H        29.4188556734       15.8076187013       14.7982737795
  H        31.6758916405       19.4630958243        1.6550966561
  H        32.3147036695       16.1230524402        2.2272357265
  H        32.4236631717       18.5105299482       15.8639539692
  H        18.8529412599        0.8688292902       12.3352157048
  H        40.5278572883       35.2291709834        3.9521033821
  H        42.3236901546       34.4185867624        3.5907278329
  H        22.0876018300        0.6920439138       12.3516538488
  H        11.5969340536       18.7127651657       12.3823928378
  H        52.2652664226       18.4313021724        3.6776402300
  H        49.2552192954       16.4769914075        3.5844961607
  H        10.1503434013       15.7983095156       12.2926783804
  H        50.8504679907       17.6925709556        3.9541700873
  H        10.0461270873       17.3947321424       12.0519003177
  H        20.2140808255        0.0020920688       12.0420898855
  H        39.1834422564       36.1244301274        3.6864965378
 Ni        30.8235361257       17.7446710292        2.9975214518
 Ni        31.2008615515       16.5440925128        0.0873698867
 Ni        29.8882398850       18.7696124324        0.3274460064
 Ni        30.0165061524       17.4745352141       13.3216028946
  O        10.6499360701       14.3651381734        5.4858653519
  O        12.6131616145       14.6575398272        6.5839233392
  O        49.1477359849       16.8458874876        7.9897218822
  O        50.3502947721       20.9357677742        5.6480380550
  O        48.3485580909       20.5932799919        6.6659218500
  O        11.0515812954       17.0538137411        6.5007367583
  O        50.3209580949       20.8816649449       10.4068439910
  O        48.3467178752       20.5866967496        9.3271017676
  O        49.5435906479       18.2483848183       10.0681851342
  O        12.3590921351       18.6246309793        7.9996730732
  O        48.6931462006       14.1487041562        6.7512445185
  O         8.2098218431       14.2105265554        9.3226152852
  O        10.7353488043       14.5067596027       10.6643433367
  O        12.5718404395       14.5828122143        9.3284727579
  O        22.8444275163        2.0430854369        5.4872445945
  O        21.6049614056        3.5920054025        6.5901025574
  O        42.0581835442       34.1372859165        7.9789863928
  O        37.9817918405       33.1376408310        5.5724902161
  O        39.2182436212       31.5761891831        6.6667683588
  O        20.3083180454        1.0394564439        6.5020132382
  O        38.0247426767       33.1859412800       10.4150919014
  O        39.2192302278       31.5838516445        9.3263558325
  O        40.6522656947       33.7693296177       10.0602547067
  O        18.2552584748        1.3761358206        7.9967786005
  O        44.6222250342       35.1005277663        6.7587351162
  O        24.2053846112       -0.0000154117        9.3208243131
  O        22.7529236716        2.0577044975       10.5837223112
  O        21.6241553047        3.5958427874        9.3421428837
  O        27.4939964888       18.7553099137        5.5044939783
  O        26.7654994210       16.9321135428        6.6554161373
  O        30.6632854576       19.4051235073        8.0773000072
  O        33.5433805249       16.3303870801        5.6536716175
  O        34.2766212490       18.1792468295        6.7452104796
  O        29.5692078076       17.0638606789        6.5885642217
  O        33.5350677536       16.3284448288       10.5002704544
  O        34.2683010278       18.1789024550        9.4087624114
  O        31.6462023279       18.3163995596       10.1631758119
  O        30.3221123601       15.1574713781        8.0914474259
  O        28.5540699894       21.0342144333        6.9026187765
  O        28.5153980449       20.9550921193        9.4162206972
  O        27.4567475348       18.6800066182       10.6586535556
  O        26.6935929467       16.9291729732        9.4144125288
  O        13.1484608696       18.6930232749       10.5873754753
  O        13.9194110174       16.9163440375        9.4052117232
  O        50.5960324525       19.3501172618        8.0203663826
  O        47.6817502076       16.3273417462       10.4175933629
  O        46.9505672427       18.1758255285        9.3251971145
  O        11.0696792871       17.0155252151        9.4895532519
  O        47.6742014273       16.3360586091        5.6524257213
  O        46.9255262624       18.2360163900        6.6636517663
  O        49.5685211560       18.3176632122        5.9822638086
  O        10.3186390280       15.1002608049        7.9970600663
  O        52.6707283540       21.0278475279        9.2418041043
  O        12.1468235658       20.8911961677        6.6732994382
  O        13.1081292119       18.6136676088        5.3256768281
  O        13.9572909858       16.9871710845        6.6652658371
  O        29.9942773816       14.4395283182       10.7292780933
  O        28.0895842640       14.6537587119        9.4952441163
  O        32.1275191212       16.8585520076        8.1009042134
  O        30.9631709485       20.9489580639       10.4127482616
  O        32.9465092939       20.6002980500        9.3433124097
  O        29.5625239204       17.0795656188        9.5744703580
  O        30.8692961111       20.9418134992        5.6619134375
  O        32.8758721062       20.5865008841        6.6673402165
  O        31.6824228086       18.2529765067        6.0129969628
  O        28.2859100567       18.6765222105        8.0834384990
  O        32.4905031286       14.2155714972        9.3338057060
  O        32.4070735573       14.2132703325        6.8254733308
  O        29.9099871462       14.4322989034        5.4926283159
  O        28.0360145342       14.5852863698        6.7562472053
  O        17.8892152729        1.9666048254       10.6628414377
  O        18.9561961041        3.5271225174        9.4080251171
  O        39.1686797386       34.1388562904        7.9971769990
  O        43.2802144872       33.0588986586       10.3317326665
  O        42.0345286797       31.5064365292        9.2416066833
  O        20.3175646559        1.0366219237        9.4803045093
  O        43.2760665464       33.1825253750        5.5748792245
  O        42.0052929230       31.5840943841        6.5829889881
  O        40.5790096592       33.7749452595        5.9357688160
  O        22.3671936399        1.3844623845        7.9979216247
  O        36.6727242385       35.0997966328        9.2332593166
  O        16.4454978895        0.0642443705        6.6682861395
  O        17.9364729754        2.0433412582        5.3263550601
  O        18.9189505053        3.5931162640        6.6659145273
  O        29.8147928211       18.8236817881        4.1673024489
  O        29.7817753796       18.9030056262       12.0854999918
  O        31.0551041894       16.2617467796        4.1562104615
  O        31.0925539320       16.4881588342       12.0757068278
  O        32.0230823519       16.9215240547        1.7428623388
  O        30.3221767141       16.0434006517       14.5068466765
  O        31.5963833836       18.2579387361       15.4111291458
  O        30.7479433065       19.2847483345        1.8982247179
  O        29.0338098910       18.4674651082       14.6487799343
  O        39.4567341580       35.2438232202        4.0019768320
  O        19.1409136318        0.0043341002       11.9905957644
  O        41.9696394709       35.1727633174        4.0871431800
  O        21.6912376595       -0.0693374506       11.8959345122
  O        51.3652687603       18.6143504649        4.0054282829
  O        10.7510660257       18.7471333947       11.9049479626
  O        50.0796134984       16.4127417842        4.0918059345
  O         9.5243995257       16.4831339900       11.9912358268
 Zr         9.2971849343       16.0529459390        6.1824256063
 Zr        49.8366250441       16.0069038733        9.7464499003
 Zr        22.0730843185        0.0295488109        6.1891371508
 Zr        42.4607926874       35.1532244186        9.8009558601
 Zr        29.5984960315       19.0918826970        6.3054883132
 Zr        29.5728178550       19.1689700691        9.8850217015
 Zr        11.0384116967       19.0519336634        9.8277917976
 Zr        11.0444232838       19.1547833061        6.2509443656
 Zr        31.3260745714       16.1109877680        9.9041018607
 Zr        31.3951207805       16.0204398646        6.3229473320
 Zr        18.6008775284       -0.0015192331        9.7633425919
 Zr        18.5062841596       -0.0078583251        6.2136608239
 Zr        12.3028893665       16.3237631698        7.9902953830
 Zr        48.6165286379       18.8330239958        8.0102045777
 Zr        20.3145376650        2.4730057407        7.9905949819
 Zr        40.6433463177       32.6869050634        7.9782315695
 Zr        28.3324902667       16.3458517214        8.0799158687
 Zr        32.6239860557       18.8427126176        8.0625111820
  H        28.6188584228       19.1244635401        0.9329468038
