     567
 i =      329, E =     -4728.2964117457
  C        11.8587826017       14.0536594253        5.7415932490
  C        12.4563523470       12.8906063593        5.0233912161
  C        11.7046857825       12.1718123299        4.0816164681
  C        12.2810537030       11.1096221130        3.3892192109
  C        13.6215752853       10.7397304335        3.6170685005
  C        14.3546774057       11.4431206511        4.5907126879
  C        13.7818091605       12.5081048957        5.2822489719
  C        14.2611765420        9.6491152114        2.8436439878
  C        14.2566739903        9.6571091472        1.4219329212
  C        13.7435460321       10.7592552195        0.6680319465
  C        49.1268295963       21.2330417933        5.8796520115
  C        48.5500758741       22.4010141754        5.1525019726
  C        49.3001824388       23.0685355574        4.1717146821
  C        48.7332381662       24.1076984429        3.4385388558
  C        47.4026279276       24.5091567469        3.6670345343
  C        46.6715392003       23.8599962842        4.6802482558
  C        47.2340130164       22.8150761960        5.4095746335
  C        46.7723913415       25.5869156261        2.8698038606
  C        46.7613119368       25.5573480831        1.4480377551
  C        47.2611294243       24.4421991985        0.7045536659
  C        14.8606905267        8.5708157679        0.7086573859
  C        14.8918901312        8.5971142006        3.5202704154
  C        49.1131661739       21.2033748781       10.1453563512
  C        48.5276793074       22.3646492684       10.8726785794
  C        49.2670026260       23.0256841630       11.8652975292
  C        48.6906031861       24.0602087118       12.5967651156
  C        47.3600591302       24.4566556951       12.3587508910
  C        46.6394808730       23.8113341690       11.3356235575
  C        47.2131050581       22.7754458613       10.6038516993
  C        46.7216129900       25.5316880942       13.1497325702
  C        46.7333988955       25.5281269320       14.5714377747
  C        47.2487805957       24.4288722127       15.3277941029
  C        40.6277788079       17.0972990229       15.3165458177
  C        40.6457735397       17.1329353385       12.5077170253
  C        11.8830222440       14.0866909883       10.2853079375
  C        12.4724651949       12.9108238821       10.9895633204
  C        11.7150866043       12.1778595988       11.9159531228
  C        12.2817014134       11.0954398830       12.5844338919
  C        13.6204237844       10.7215351221       12.3523884176
  C        14.3582270054       11.4367997721       11.3912277903
  C        13.7927505131       12.5179136975       10.7184692863
  C        14.2540982606        9.6248328679       13.1228305465
  C        14.2529478456        9.6448333245       14.5446830069
  C        13.7430738144       10.7537722905       15.2917737351
  C        22.5106138995        3.2450311765        5.7534801555
  C        23.2209672517        4.3535073820        5.0547990192
  C        24.2226292235        4.0803184268        4.1117131923
  C        24.8438720832        5.1244724373        3.4312835963
  C        24.4784661023        6.4637139545        3.6733995403
  C        23.5051114319        6.7285327935        4.6538234293
  C        22.8798265095        5.6863888260        5.3330012740
  C        25.0774717761        7.5742118731        2.8986095914
  C        25.0579242969        7.5627202875        1.4770088575
  C        24.3646141792        6.5575076333        0.7305062230
  C        38.2952731913       31.9274402078        5.8536015704
  C        37.5463956318       30.8389326759        5.1572697144
  C        36.5755652602       31.1475353960        4.1915363757
  C        35.9382269169       30.1312333348        3.4843036163
  C        36.2552300018       28.7785051709        3.7183466903
  C        37.1944730888       28.4771786917        4.7230087546
  C        37.8358733215       29.4927060891        5.4298223755
  C        35.6412425611       27.6927906250        2.9165835772
  C        35.6858601811       27.7103104388        1.4943380053
  C        36.4026702191       28.7111667061        0.7649022123
  C        25.6792758480        8.6334786233        0.7571154017
  C        25.6609747782        8.6563267049        3.5699594483
  C        38.3315772139       31.9612067528       10.1618744891
  C        37.6165510395       30.8897831544       10.9155501728
  C        36.6829549467       31.2027239536       11.9157876079
  C        36.0719281865       30.1885116938       12.6513716621
  C        36.3793816968       28.8340924690       12.4114371565
  C        37.2957495126       28.5309678788       11.3853875204
  C        37.9083344591       29.5417817851       10.6506631841
  C        35.7590823950       27.7375563751       13.1921261683
  C        35.7458995250       27.7333406031       14.6149113126
  C        36.4296415512       28.7233700971       15.3882600728
  C        46.1355073284       26.6208376131       15.2815612034
  C        46.0876213532       26.5800075728       12.4736623690
  C        22.4614017521        3.2566478742       10.2588394997
  C        23.1555343761        4.3656985440       10.9825986621
  C        24.1575179178        4.0803264917       11.9239350938
  C        24.7850048362        5.1106040521       12.6207244947
  C        24.4311225982        6.4567745992       12.3992595075
  C        23.4523598793        6.7353633523       11.4262432039
  C        22.8202289939        5.7053956400       10.7300573410
  C        25.0602328954        7.5561772333       13.1743739221
  C        25.0500649881        7.5524151046       14.5974052713
  C        24.3583825954        6.5541368270       15.3536573060
  C        26.6789158482       17.8763825011        5.7320565456
  C        25.3790919234       17.9605613598        4.9991506138
  C        25.1365880152       18.9414801692        4.0245595770
  C        23.9093383490       18.9873855887        3.3618438844
  C        22.8891767885       18.0551181758        3.6470184864
  C        23.1317618618       17.0978151897        4.6504862529
  C        24.3559349437       17.0484948019        5.3126547012
  C        21.6057494208       18.0448079524        2.8979045372
  C        21.5954522052       17.9946452386        1.4760407076
  C        22.7947775079       17.8432594767        0.7108077628
  C        34.4910204602       17.2244669474        5.9911138113
  C        35.7744783892       17.1645853478        5.2367181191
  C        35.9506729642       16.1957567033        4.2362782610
  C        37.1154228821       16.1764579386        3.4742719715
  C        38.1353701890       17.1221060572        3.6945830632
  C        37.9610629923       18.0713727310        4.7205038000
  C        36.7925680268       18.0992957230        5.4774898807
  C        39.3809153836       17.1196944162        2.8943437662
  C        39.3723741424       17.1223271511        1.4719451334
  C        38.1641672505       17.2370005775        0.7144148691
  C        20.3442937561       18.0027925061        0.7753690577
  C        20.3835848863       18.0526093367        3.5883374254
  C        34.5093008824       17.2101937614       10.1110473924
  C        35.7998455044       17.1352518676       10.8492328266
  C        35.9958409223       16.1549401322       11.8333862200
  C        37.1676171774       16.1407090406       12.5848873352
  C        38.1730467096       17.1022582382       12.3673760660
  C        37.9826540841       18.0584126417       11.3517089830
  C        36.8069531352       18.0817914458       10.6073229263
  C        39.4144086791       17.1172917811       13.1721686639
  C        39.3898009449       17.1217612411       14.5937440212
  C        38.1722794159       17.2346023135       15.3369033612
  C        35.1018310841       26.6568352999       15.3114178268
  C        35.1761382512       26.6667181636       12.5017660058
  C        26.5677095068       17.8288322943       10.3259406974
  C        25.2524758315       17.8779535897       11.0292037704
  C        24.9987376906       18.8738648364       11.9847303857
  C        23.7793790530       18.9049339374       12.6553632391
  C        22.7858601433       17.9379980718       12.3998000115
  C        23.0357093220       16.9665565605       11.4131420853
  C        24.2543559489       16.9349460146       10.7375303830
  C        21.5242557379       17.9230660832       13.1768175914
  C        21.5539865996       17.9286160397       14.5985450192
  C        22.7749263988       17.8108524759       15.3353668026
  C        14.0454353214       17.8272998907       10.2920911469
  C        15.3463323331       17.8828210442       11.0250811907
  C        15.6036415885       18.8957695081       11.9622948526
  C        16.8107235384       18.9212832714       12.6585521322
  C        17.7951867318       17.9362265604       12.4407200034
  C        17.5408058151       16.9440388109       11.4748196644
  C        16.3335056069       16.9147133517       10.7791929894
  C        19.0672338570       17.9303548311       13.2060767591
  C        19.0730154666       17.9495496206       14.6287741669
  C        17.8702675386       17.8656212606       15.3983801322
  C        46.8045405516       17.2175991604       10.1581497882
  C        45.5145681811       17.1521820483       10.9024086256
  C        45.3091236090       16.1689315041       11.8826706359
  C        44.1275854009       16.1462983129       12.6185880238
  C        43.1219175936       17.1072041735       12.3967210858
  C        43.3244673545       18.0698812694       11.3893423370
  C        44.5065148466       18.0961662995       10.6538427851
  C        41.8694093844       17.1146339620       13.1859253950
  C        41.8747620650       17.1097818068       14.6075798036
  C        43.0846325358       17.2015130079       15.3646741548
  C        20.3234503488       17.9696789493       15.3302291025
  C        20.2880415721       17.9035719428       12.5175197346
  C        46.7857091730       17.2311658674        5.8887866439
  C        45.4839613303       17.1247272784        5.1723340137
  C        45.2657168059       16.1220786015        4.2152722915
  C        44.0788157993       16.0934187596        3.4875844450
  C        43.0811755349       17.0645550224        3.6998981072
  C        43.2899525346       18.0373703868        4.6953117902
  C        44.4777495930       18.0722158258        5.4184516408
  C        41.8351082578       17.0845461839        2.9035080483
  C        41.8573320126       17.0931539592        1.4828413681
  C        43.0763858531       17.1910914748        0.7412382945
  C        46.1533638465       26.6372914063        0.7263222322
  C        46.1625055218       26.6560377606        3.5359734899
  C        14.0524265769       17.8400436514        5.7124374497
  C        15.3811444614       17.9372031777        5.0327144206
  C        15.6496454644       18.9674573063        4.1181621513
  C        16.8816674716       19.0284837537        3.4689386280
  C        17.8772930515       18.0588788731        3.7058022977
  C        17.6161215699       17.0583712431        4.6604847441
  C        16.3859508061       16.9971717007        5.3141739026
  C        19.1450357720       18.0504078236        2.9305328922
  C        19.1132026741       18.0111974331        1.5082014690
  C        17.8897176931       17.8933036114        0.7745616676
  C        28.8104295181       14.0935132824       10.3913481710
  C        28.1928372994       12.9233444256       11.0812853950
  C        28.9131879331       12.1860932849       12.0330750082
  C        28.3125892739       11.1126713067       12.6862014845
  C        26.9778234946       10.7520449449       12.4113475096
  C        26.2793038516       11.4701444497       11.4241229808
  C        26.8772117359       12.5443033706       10.7698805494
  C        26.3081962434        9.6721755100       13.1722431456
  C        26.2915245236        9.7014421159       14.5934058441
  C        26.7908004138       10.8166000857       15.3387502570
  C        32.1811002715       21.2493258223       10.1438400383
  C        32.7757496510       22.4146277235       10.8635603961
  C        32.0207956893       23.0970768650       11.8305974332
  C        32.5873987358       24.1372420436       12.5610850160
  C        33.9250019187       24.5238226021       12.3472499135
  C        34.6627722723       23.8592000532       11.3493077287
  C        34.0986643222       22.8135281291       10.6202006198
  C        34.5481382638       25.5993508243       13.1534385977
  C        34.5193893789       25.5732432077       14.5752766832
  C        34.0010261980       24.4587195351       15.3071126195
  C        25.6813659355        8.6237654010       15.3120959037
  C        25.6750840166        8.6192122118       12.4986486579
  C        32.0174294043       21.1636027427        5.7967563825
  C        32.5848544724       22.3392079584        5.0766473342
  C        31.8622714414       23.0010470890        4.0709781834
  C        32.4402930364       24.0561331787        3.3670972497
  C        33.7562442551       24.4792435014        3.6446061858
  C        34.4567731338       23.8340917205        4.6824567631
  C        33.8837567882       22.7780271060        5.3849185316
  C        34.4078891402       25.5666154764        2.8755228205
  C        34.4462098197       25.5573315289        1.4529762534
  C        33.9646835272       24.4517134225        0.6833938207
  C        40.6185093081       17.0931062311        0.7613814593
  C        40.6062907873       17.1164485580        3.5704106555
  C        28.7118702804       14.0948442195        5.8217187603
  C        28.0916207049       12.9533128384        5.0867065880
  C        28.8291342666       12.2407058888        4.1280404896
  C        28.2458751355       11.1871265505        3.4295125389
  C        26.9074232473       10.8146605225        3.6654559450
  C        26.1853911426       11.5131008159        4.6517009953
  C        26.7670191470       12.5702039654        5.3504259163
  C        26.2709737421        9.7199645796        2.8928045372
  C        26.2738895578        9.7260926432        1.4705353571
  C        26.7799371313       10.8300113051        0.7148656340
  C        18.1353448302        3.1809802982       10.3172288802
  C        17.4060974726        4.2782012157       11.0157919270
  C        16.3905804838        3.9999368237       11.9435765038
  C        15.7429393977        5.0399789379       12.6070436393
  C        16.0947221095        6.3837050988       12.3671107852
  C        17.0838400620        6.6531216206       11.4030350007
  C        17.7328613078        5.6157233361       10.7380175207
  C        15.4705091126        7.4914640076       13.1301424715
  C        15.4859175443        7.4908190182       14.5518518176
  C        16.1875592847        6.4972640290       15.3050205254
  C        42.9457888465       31.8594629090       10.0728726540
  C        43.6461043072       30.7718129313       10.8167497855
  C        44.5914205875       31.0931432150       11.8030515852
  C        45.1971223681       30.0875972124       12.5507002749
  C        44.8709264434       28.7344812962       12.3357082283
  C        43.9453703707       28.4201493476       11.3222191844
  C        43.3365722394       29.4252773350       10.5741480383
  C        45.4885003114       27.6552005608       13.1389308534
  C        45.4928047738       27.6809608909       14.5606281837
  C        44.8058278937       28.6890455239       15.3073008954
  C        14.8569552261        8.5633106853       15.2642214230
  C        14.8752036094        8.5632263907       12.4515523461
  C        42.9464627109       31.9615302540        5.8089636119
  C        43.6917730682       30.8854628057        5.0956810833
  C        44.6561784079       31.1914079485        4.1231695370
  C        45.2777342602       30.1718427236        3.4054708539
  C        44.9542543947       28.8214632608        3.6432852390
  C        44.0210368680       28.5237816447        4.6543291075
  C        43.3927311881       29.5405151058        5.3665133796
  C        45.5632225101       27.7240868942        2.8579627988
  C        45.5335059918       27.7174842284        1.4366567114
  C        44.8271874769       28.7077113407        0.6836956452
  C        35.0679472550       26.6471309288        0.7569840112
  C        35.0191034458       26.6207617492        3.5680108031
  C        18.1485867130        3.2470503566        5.7066559127
  C        17.4300641523        4.3438681351        4.9973645257
  C        16.4151165865        4.0526275222        4.0734864950
  C        15.7668454268        5.0832789981        3.3981057056
  C        16.1212763858        6.4285369600        3.6211069307
  C        17.1123482983        6.7118823046        4.5787035694
  C        17.7599710797        5.6829526050        5.2584741752
  C        15.4908485839        7.5242614460        2.8486677141
  C        15.4968844644        7.5076935010        1.4275364521
  C        16.1937831541        6.5060901967        0.6808337012
  H        10.6725903717       12.4660367108        3.9045248279
  H        11.6947667551       10.5512484385        2.6625926385
  H        15.3916751181       11.1684492639        4.7725269914
  H        14.3512161538       13.0713068400        6.0177497106
  H        13.3764363244       11.6313252067        1.2013696396
  H        50.3229364067       22.7485898626        3.9870687906
  H        49.3197589339       24.6231056387        2.6810855925
  H        45.6419190960       24.1604683710        4.8631892398
  H        46.6628800436       22.2895537229        6.1713867917
  H        47.6295073620       23.5757559498        1.2462465495
  H        14.8720559628        8.5882943879        4.6085736084
  H        50.2871563006       22.7030619072       12.0600179619
  H        49.2690430147       24.5758979766       13.3600746075
  H        45.6099004714       24.1081582339       11.1468677938
  H        46.6521348452       22.2528978366        9.8326549545
  H        47.6073613327       23.5516814969       14.7968759022
  H        40.6514490104       17.1046153038       11.4198150720
  H        48.6871118232       14.0948292444        7.8000607998
  H        10.6816699505       12.4670540709       12.0935001307
  H        11.6899458884       10.5252123057       13.2972970970
  H        15.3935657843       11.1587245078       11.2050539630
  H        14.3648852485       13.0869989588        9.9895488330
  H        13.3762131847       11.6223752584       14.7531390584
  H        47.9300615280       14.2187180968        9.7104958664
  H        47.7799997355       14.3735075605        6.4952843667
  H        49.0836321425       18.5518928964       10.8672082515
  H        10.4159663313       14.1343696812        7.9986150208
  H        24.4920385526        3.0436524374        3.9220482485
  H        25.6211024341        4.9127238543        2.7001937265
  H        23.2154724693        7.7593505618        4.8470259615
  H        22.1060922056        5.8810632538        6.0715649174
  H        23.8050643001        5.7992420971        1.2704250122
  H        36.3455088277       32.1921542196        3.9955156559
  H        35.1876874271       30.3773329106        2.7362677221
  H        37.4486273402       27.4364711613        4.9135847492
  H        38.5866424781       29.2646508724        6.1828930207
  H        36.9625189111       29.4599652852        1.3175631506
  H        25.6884427092        8.6431842328        4.6580528892
  H        36.4546577963       32.2477133554       12.1130790840
  H        35.3405671620       30.4388958079       13.4166868342
  H        37.5481535593       27.4901159382       11.1937628415
  H        38.6355796411       29.3107349142        9.8760332369
  H        37.0110969359       29.4811957823       14.8708605082
  H        46.1089442139       26.5872734836       11.3856234877
  H        44.6683395721       35.1161796779        7.8139018890
  H        24.4356843249        3.0422337513       12.0913959429
  H        25.5655082427        4.8811370383       13.3430640138
  H        23.1669318563        7.7697176026       11.2454999481
  H        22.0488934205        5.9188280994        9.9936285963
  H        23.7932475172        5.7939897976       14.8221126551
  H        44.9540601015       34.3905955600        9.6952875867
  H        44.9019382217       34.2069569132        6.4904417721
  H        40.6668435391       33.2093572658       10.8533015860
  H        23.1503913956        1.9579410835        8.0055782521
  H        25.9172351683       19.6657567866        3.8017484013
  H        23.7275092369       19.7562578480        2.6138759154
  H        22.3596526267       16.3666632751        4.8812239500
  H        24.5485606079       16.2960714692        6.0733649833
  H        23.7372036828       17.7193003147        1.2357772094
  H        35.1534944216       15.4770704586        4.0603519703
  H        37.2498434253       15.4197604891        2.7044619310
  H        38.7412499148       18.8095615684        4.8941382683
  H        36.6413834569       18.8490790721        6.2505782028
  H        37.2236648292       17.3588948394        1.2444146824
  H        20.3970093185       18.1059378833        4.6756756263
  H        35.2093965170       15.4249822757       12.0099790401
  H        37.3171380553       15.3795319389       13.3474332233
  H        38.7531744412       18.8071847850       11.1803509362
  H        36.6375954263       18.8394235195        9.8459245325
  H        37.2378743926       17.3539796577       14.7954853250
  H        35.1650695103       26.6913998711       11.4137416024
  H        28.5165042125       21.0977961754        7.9995186379
  H        25.7712476456       19.6121750827       12.1878981588
  H        23.5829219905       19.6824792991       13.3903118760
  H        22.2786526168       16.2120812059       11.2091572558
  H        24.4616902377       16.1724736690        9.9904724465
  H        23.7019965202       17.6631549537       14.7895909386
  H        28.9781522619       21.7238395379        9.7846191074
  H        29.0804789030       21.7798055266        6.5891201976
  H        32.1777963138       18.5346145337       10.9711293220
  H        27.4021547095       19.0820615046        8.0794257588
  H        14.8477450315       19.6600805220       12.1283869068
  H        17.0068085081       19.7150094251       13.3762658121
  H        18.2893970448       16.1742727863       11.2986093894
  H        16.1272706851       16.1369542159       10.0476428932
  H        16.9243753083       17.7457732270       14.8780177785
  H        46.0925233895       15.4361449109       12.0610321230
  H        43.9686432961       15.3762386530       13.3702725415
  H        42.5556929778       18.8195297952       11.2137964112
  H        44.6791847990       18.8535571672        9.8928050627
  H        44.0259564265       17.3133800060       14.8343182061
  H        20.2752635269       17.9213294573       11.4291667144
  H        46.0419362333       15.3799525100        4.0432491790
  H        43.9116276210       15.3154017886        2.7458855484
  H        42.5241606606       18.7913193660        4.8651532121
  H        44.6604865417       18.8417966767        6.1643634639
  H        44.0114678247       17.2936413916        1.2841688240
  H        46.1993476841       26.6824801900        4.6234213042
  H        52.7408976667       21.0625770033        8.1946368912
  H        14.8815186237       19.7145832335        3.9306225673
  H        17.0834787662       19.8303532610        2.7618254885
  H        18.3736409287       16.3015809715        4.8540305776
  H        16.1734407271       16.2101071237        6.0338630113
  H        16.9586373789       17.7947381272        1.3245195779
  H        52.3214288892       21.6728532499        6.2945982030
  H        52.0125613579       21.7013933678        9.4956843101
  H        49.0675881310       18.6072627366        5.2041714678
  H        13.2475770673       19.0169729896        7.9787600168
  H        29.9427203828       12.4668479138       12.2447506564
  H        28.8731850078       10.5400787532       13.4219529009
  H        25.2478306590       11.2019526154       11.2048811017
  H        26.3349520935       13.1197480682       10.0236473886
  H        27.1565479090       11.6845530048       14.7984362646
  H        30.9931386729       22.7865901477       12.0045103182
  H        31.9962057426       24.6648139181       13.3064024708
  H        35.6984591943       24.1460664486       11.1788667800
  H        34.6759675108       22.2754000336        9.8718786838
  H        33.6582329319       23.5865788575       14.7576707387
  H        25.7072324685        8.5990627040       11.4107068935
  H        30.8512588205       22.6705760201        3.8439545166
  H        31.8716375064       24.5675210984        2.5934998856
  H        35.4745849842       24.1467227843        4.9063863208
  H        34.4349041697       22.2605433776        6.1663985586
  H        33.5943383235       23.5732611524        1.2039224804
  H        40.6015758584       17.0849504581        4.6582219306
  H        32.5101206798       14.1281443904        8.2555572502
  H        29.8643091174       12.5198216187        3.9481148627
  H        28.8273773332       10.6334581976        2.6955573974
  H        25.1498003914       11.2386062153        4.8419432442
  H        26.2044791085       13.1239065856        6.0985306567
  H        27.1363761702       11.7082542951        1.2453989053
  H        33.3053149127       14.2257739649        6.4572201804
  H        33.4058666701       14.4135294209        9.5950810437
  H        32.1099969904       18.5373093838        5.0608446149
  H        30.2329578681       14.1900579678        8.0724623583
  H        16.1185884391        2.9634531508       12.1301824656
  H        14.9536321823        4.8206732723       13.3228831316
  H        17.3661286239        7.6859902264       11.2096783618
  H        18.5147105463        5.8183402755       10.0099618456
  H        16.7542189144        5.7399928403       14.7715343525
  H        44.8276197974       32.1402172828       11.9773836686
  H        45.9368497065       30.3413727092       13.3067711437
  H        43.6829178745       27.3780545526       11.1518770107
  H        42.6003115245       29.1898403984        9.8091708073
  H        44.2304431031       29.4368250990       14.7690529253
  H        14.8512843341        8.5464073104       11.3633357523
  H        44.8995630443       32.2340900720        3.9315362104
  H        46.0244916389       30.4131057882        2.6520999457
  H        43.7643425055       27.4840269559        4.8461251136
  H        42.6464798128       29.3175998247        6.1251660114
  H        44.2687138972       29.4706352526        1.2182571861
  H        34.9663607307       26.6316820127        4.6551664145
  H        36.6052911840       35.1340728100        8.1805814237
  H        16.1441679423        3.0130556206        3.9035392373
  H        14.9746972823        4.8564726940        2.6878123111
  H        17.3956285060        7.7473639739        4.7558709495
  H        18.5425737357        5.8934098261        5.9835288247
  H        16.7652957647        5.7558999171        1.2192553997
  H        36.2789941104       34.4823049786        6.2730280354
  H        36.3809577283       34.2089879354        9.4993597914
  H        40.5790549652       33.2018323785        5.1544360865
  H        17.4710927037        1.9471933440        7.9741180045
  H        28.9699922309       19.1547946093       12.5107070588
  H        31.2435650712       14.9121531555        3.9526858577
  H        31.5466333405       15.5377450309       12.4897267571
  H        27.9379508140       17.8075958463       14.4552049638
  H        29.5588971307       15.1089590800       14.0454643139
  H        28.4927146032       17.3604520191        1.6691992126
  H        31.4686866978       19.4286171425       13.6886175221
  H        18.8535988636        0.8690925638       12.3351474733
  H        40.5281453604       35.2289316151        3.9520692641
  H        42.3242738662       34.4190774603        3.5905899369
  H        22.0878789665        0.6919353645       12.3516144092
  H        11.5969847292       18.7132935701       12.3822426467
  H        52.2648309424       18.4307383937        3.6769383186
  H        49.2551851285       16.4769906195        3.5846903622
  H        10.1500734415       15.7982619993       12.2932742893
  H        50.8498743024       17.6922349931        3.9543743384
  H        10.0461634380       17.3945276564       12.0520709789
  H        20.2149655786        0.0023382105       12.0419650319
  H        39.1837409837       36.1244271782        3.6864675429
 Ni        30.3942302401       16.7233889482        2.9137919062
 Ni        29.9286808190       16.4003138022        0.0020293158
 Ni        30.0139841165       18.6391188339       -0.5795452805
 Ni        30.3055405575       17.4061411816       13.0772786650
  O        10.6500793633       14.3650646581        5.4858482718
  O        12.6133639882       14.6576904945        6.5838931990
  O        49.1480498645       16.8459449636        7.9897899248
  O        50.3502935860       20.9356952596        5.6479833065
  O        48.3485694725       20.5933290131        6.6659300685
  O        11.0518889921       17.0536623154        6.5007829232
  O        50.3210501021       20.8817237765       10.4067999781
  O        48.3467635239       20.5867768589        9.3271236204
  O        49.5441590196       18.2484259730       10.0681812413
  O        12.3594348372       18.6243951824        7.9994685695
  O        48.6932697645       14.1485418231        6.7513216095
  O         8.2099374798       14.2103318361        9.3225083184
  O        10.7354857554       14.5066961224       10.6642993573
  O        12.5719329089       14.5829803659        9.3283570171
  O        22.8447023665        2.0443109895        5.4871349085
  O        21.6045683272        3.5918409809        6.5909181668
  O        42.0580196571       34.1372667695        7.9789914600
  O        37.9811672229       33.1364524360        5.5721349823
  O        39.2167597887       31.5748900660        6.6650864859
  O        20.3084518843        1.0396396335        6.5021918590
  O        38.0246429799       33.1854217661       10.4156699335
  O        39.2181079329       31.5827891291        9.3277729053
  O        40.6522506467       33.7692844042       10.0601560899
  O        18.2557001991        1.3759037327        7.9968074693
  O        44.6221880305       35.1005979287        6.7587263727
  O        24.2053967723        0.0000363881        9.3207806761
  O        22.7532909328        2.0582799177       10.5842907651
  O        21.6248966154        3.5966501494        9.3438450569
  O        27.6297195812       18.6895503854        5.4120284464
  O        26.7406745561       17.0024484903        6.6596215691
  O        30.6689388491       19.4065301031        8.0644539524
  O        33.6618231591       16.2756183893        5.8221936974
  O        34.3023864807       18.2527377812        6.7403868121
  O        29.5790541191       17.0606891165        6.5884535355
  O        33.6723186904       16.2616503696       10.2528923661
  O        34.3117957136       18.2562994066        9.3999361172
  O        31.7107145899       18.3122102448       10.1484913567
  O        30.3253816543       15.1569979928        8.0792343224
  O        28.5521397571       21.0299721757        6.9118257232
  O        28.5138408615       20.9576788865        9.4066527345
  O        27.4564183352       18.6778664172       10.6594174265
  O        26.6932021926       16.9295474398        9.4135566540
  O        13.1483023330       18.6931559010       10.5875295027
  O        13.9202958563       16.9164943583        9.4060978875
  O        50.5961821478       19.3501325945        8.0200520693
  O        47.6837083172       16.3266983991       10.4169090475
  O        46.9515749114       18.1757512751        9.3250054212
  O        11.0703963343       17.0150687385        9.4894786910
  O        47.6763532978       16.3353652827        5.6534140821
  O        46.9277187298       18.2357106739        6.6644303608
  O        49.5691051750       18.3176513556        5.9823231413
  O        10.3187263054       15.1002305480        7.9970184957
  O        52.6707421820       21.0278316889        9.2418173699
  O        12.1468305755       20.8911455800        6.6731926634
  O        13.1100042180       18.6141585979        5.3253195132
  O        13.9604514654       16.9884815352        6.6628773604
  O        29.9921341529       14.4442075080       10.7294140063
  O        28.0893270924       14.6548747491        9.4917326287
  O        32.1048672467       16.9174364998        8.0520734503
  O        30.9701121869       20.9566535279       10.4059304590
  O        32.9489555385       20.6089251143        9.3356953522
  O        29.5731869276       17.0785607859        9.5796811770
  O        30.8080155756       20.7994729883        5.4993418663
  O        32.7750173917       20.5919158664        6.6469556326
  O        31.6023291590       18.2342558267        5.8311213460
  O        28.2868007826       18.6804918039        8.0818035332
  O        32.4903180125       14.2060949801        9.3256537676
  O        32.4041925042       14.2120593958        6.8231288447
  O        29.9010510151       14.4326863553        5.5019992984
  O        28.0058925485       14.6490376200        6.7398846929
  O        17.8892290903        1.9665606190       10.6627905754
  O        18.9562240126        3.5270973770        9.4080185494
  O        39.1686012653       34.1385869288        7.9970932514
  O        43.2801521719       33.0589311791       10.3316497526
  O        42.0342778339       31.5065252922        9.2415804291
  O        20.3176792440        1.0366721782        9.4803481877
  O        43.2760003280       33.1825653939        5.5749413167
  O        42.0051513263       31.5841368067        6.5830134855
  O        40.5791556641       33.7752307618        5.9360521372
  O        22.3673348317        1.3846226582        7.9980411541
  O        36.6727827627       35.0996995431        9.2332704966
  O        16.4457336795        0.0642006716        6.6682649925
  O        17.9365274620        2.0433970373        5.3263769779
  O        18.9190193388        3.5930927993        6.6660238581
  O        29.7900965795       19.0413993322       11.9735557482
  O        31.5554830631       15.8318499069        4.0803798073
  O        31.5121977755       16.3380214124       11.9306138534
  O        29.4469682865       17.4443121391        1.4918323826
  O        30.2935857259       15.6872628005       14.3193514076
  O        31.4820204838       18.6178532274       14.2345250393
  O        28.5935189666       18.4607961177       14.1566609073
  O        39.4568491652       35.2437698493        4.0019912890
  O        19.1415569435        0.0045945429       11.9905221068
  O        41.9695599188       35.1727687045        4.0872689782
  O        21.6912769794       -0.0693315369       11.8958647539
  O        51.3652410844       18.6141758165        4.0054888755
  O        10.7511055880       18.7472397882       11.9048312319
  O        50.0797543396       16.4128650856        4.0917865659
  O         9.5245179523       16.4831245039       11.9912108020
 Zr         9.2963123982       16.0526758653        6.1825414165
 Zr        49.8361483039       16.0065958543        9.7464607923
 Zr        22.0734152732        0.0299908903        6.1889875699
 Zr        42.4611305977       35.1535400641        9.8010032437
 Zr        29.6192247513       19.0912961375        6.3769326375
 Zr        29.5795871069       19.1762413890        9.9067899366
 Zr        11.0376713832       19.0515979649        9.8273949644
 Zr        11.0440268973       19.1544110090        6.2508457333
 Zr        31.3730331093       16.0973406360        9.8457671235
 Zr        31.4038712281       16.0007267910        6.2765417427
 Zr        18.6011908885       -0.0014275805        9.7634250028
 Zr        18.5068711834       -0.0075137953        6.2135696745
 Zr        12.3027157138       16.3238938712        7.9894886055
 Zr        48.6158335459       18.8328193324        8.0102990855
 Zr        20.3152681884        2.4736794999        7.9911330227
 Zr        40.6434045941       32.6868886629        7.9779181897
 Zr        28.3395193161       16.3460890389        8.0953754132
 Zr        32.6656518541       18.8516638996        8.0687121276
  H        29.4949617498       17.2682173419        3.9076495188
