     567
 i =      165, E =     -4728.2616284866
  C        11.8587348875       14.0536517425        5.7415954599
  C        12.4562993050       12.8905628604        5.0234476754
  C        11.7047404753       12.1719099401        4.0814767238
  C        12.2811296881       11.1097443880        3.3890546908
  C        13.6215833708       10.7396967247        3.6170795176
  C        14.3545621366       11.4429211035        4.5909451197
  C        13.7816668592       12.5078748195        5.2825039426
  C        14.2612433878        9.6491402340        2.8436167756
  C        14.2567177631        9.6571227854        1.4219037907
  C        13.7435866738       10.7592680257        0.6680013254
  C        49.1267401838       21.2330769552        5.8796634974
  C        48.5500157809       22.4009866311        5.1525120980
  C        49.3001561498       23.0685666252        4.1717713917
  C        48.7332299227       24.1077364679        3.4386083217
  C        47.4025799577       24.5091458150        3.6670199492
  C        46.6714456882       23.8599293066        4.6801722474
  C        47.2339060438       22.8150006619        5.4094919734
  C        46.7724078194       25.5869377274        2.8697830262
  C        46.7614646311       25.5574260198        1.4480131688
  C        47.2613237761       24.4423079515        0.7045104916
  C        14.8607460965        8.5708354155        0.7086204426
  C        14.8919237845        8.5971071744        3.5202363562
  C        49.1130575165       21.2034749025       10.1453768860
  C        48.5275971607       22.3646804878       10.8726531320
  C        49.2669938178       23.0258579900       11.8651372846
  C        48.6905901876       24.0603748772       12.5965853236
  C        47.3599668905       24.4566758273       12.3587220412
  C        46.6393049205       23.8112092686       11.3357405577
  C        47.2129321036       22.7753220230       10.6039804551
  C        46.7215881141       25.5317395742       13.1497013855
  C        46.7335270916       25.5282221481       14.5714020750
  C        47.2489779833       24.4289952785       15.3277507486
  C        40.6250690498       17.1399009230       15.3370674592
  C        40.6478465419       17.1712298955       12.5281818431
  C        11.8828383606       14.0867205509       10.2853364295
  C        12.4722238670       12.9107635372       10.9895173823
  C        11.7149096726       12.1779413885       11.9160745210
  C        12.2815098353       11.0955154336       12.5845644600
  C        13.6201502966       10.7214093683       12.3523497949
  C        14.3578507675       11.4365042805       11.3909768790
  C        13.7924042795       12.5176314777       10.7182179148
  C        14.2538513495        9.6247222671       13.1227952860
  C        14.2528487134        9.6447931676       14.5446475564
  C        13.7430147272       10.7537460806       15.2917434347
  C        22.5106796408        3.2455658524        5.7519861180
  C        23.2209016659        4.3536401190        5.0506553357
  C        24.2216426282        4.0787796789        4.1069069127
  C        24.8445925260        5.1214189213        3.4253584381
  C        24.4823734190        6.4619230327        3.6662066078
  C        23.5090041910        6.7283784983        4.6464720717
  C        22.8820741265        5.6876035812        5.3269216038
  C        25.0867768617        7.5706536821        2.8917515606
  C        25.0745790411        7.5575922393        1.4697349459
  C        24.3803190628        6.5546237264        0.7211382111
  C        38.2949549318       31.9272849827        5.8537380269
  C        37.5453805058       30.8392970172        5.1579088446
  C        36.5751673982       31.1487393078        4.1917611664
  C        35.9364391767       30.1330122954        3.4851547735
  C        36.2511583920       28.7797933591        3.7199122393
  C        37.1898222241       28.4777295431        4.7249597883
  C        37.8327002933       29.4927115949        5.4312860517
  C        35.6352093904       27.6954775475        2.9178502981
  C        35.6768524999       27.7159691927        1.4955169854
  C        36.3957836097       28.7157144357        0.7666798590
  C        25.7046911758        8.6244256746        0.7509488573
  C        25.6704893271        8.6527666439        3.5636506987
  C        38.3307918433       31.9621190517       10.1614433285
  C        37.6117220793       30.8943226685       10.9152645612
  C        36.6820437427       31.2141979336       11.9170896126
  C        36.0651854392       30.2048145323       12.6539839386
  C        36.3622079898       28.8484409965       12.4130740881
  C        37.2747411052       28.5383793928       11.3856096948
  C        37.8938165037       29.5445051538       10.6498413761
  C        35.7343771525       27.7564062071       13.1936326220
  C        35.7268571110       27.7475921982       14.6163564865
  C        36.4186625673       28.7315954321       15.3899850896
  C        46.1356661517       26.6209312358       15.2815423959
  C        46.0874910142       26.5799999851       12.4736378876
  C        22.4642865531        3.2569433950       10.2582522522
  C        23.1654776936        4.3644689689       10.9791694967
  C        24.1701644750        4.0751819824       11.9166031227
  C        24.8051686017        5.1026696101       12.6109742788
  C        24.4566630672        6.4505564310       12.3913640551
  C        23.4751806907        6.7331156932       11.4221974667
  C        22.8355694903        5.7058208374       10.7282595566
  C        25.0922690293        7.5470042674       13.1665040776
  C        25.0787845639        7.5442249612       14.5896243025
  C        24.3796014109        6.5499498449       15.3442409372
  C        26.6756105561       17.8774467728        5.7333470675
  C        25.3750123606       17.9629613272        5.0022350143
  C        25.1314704040       18.9475496013        4.0315409918
  C        23.9050061608       18.9936128849        3.3674125104
  C        22.8866577950       18.0579173264        3.6476140673
  C        23.1296391051       17.0978487510        4.6483452981
  C        24.3531268198       17.0482952505        5.3117950295
  C        21.6042636380       18.0464784255        2.8967474981
  C        21.5948422987       17.9977913133        1.4747431082
  C        22.7949474095       17.8528012537        0.7092744558
  C        34.4592301430       17.2881780156        5.9887423530
  C        35.7430310461       17.2271076359        5.2343431014
  C        35.9225311848       16.2578597694        4.2345873586
  C        37.0922862262       16.2337616923        3.4799050541
  C        38.1165398795       17.1736305381        3.7069452596
  C        37.9384708161       18.1237657642        4.7315509755
  C        36.7643231565       18.1574701727        5.4803661308
  C        39.3672646542       17.1639074153        2.9124874997
  C        39.3638132038       17.1723930258        1.4899926569
  C        38.1590124573       17.3036422809        0.7304529048
  C        20.3437572029       18.0019526684        0.7738114239
  C        20.3818806121       18.0514263732        3.5866987040
  C        34.4746064732       17.2493391708       10.1881629828
  C        35.7734019327       17.1779117419       10.9129388379
  C        35.9792812408       16.2061622775       11.9037982663
  C        37.1634246930       16.1903281973       12.6345034116
  C        38.1703784716       17.1450606201       12.3937514151
  C        37.9706467294       18.0916059836       11.3713985772
  C        36.7840762601       18.1134933211       10.6439221960
  C        39.4157224673       17.1635633331       13.1915270517
  C        39.3889142652       17.1745475733       14.6129684874
  C        38.1709664936       17.3027119425       15.3531563019
  C        35.0805284184       26.6717092310       15.3117983818
  C        35.1392463685       26.6936045788       12.5022307658
  C        26.5678563403       17.8288087013       10.3271559751
  C        25.2524640213       17.8810859879       11.0287862548
  C        24.9899716075       18.8881387927       11.9701001123
  C        23.7708954638       18.9180738790       12.6413038552
  C        22.7853025408       17.9401623749       12.3980869449
  C        23.0423282555       16.9584737549       11.4235700685
  C        24.2613471516       16.9271289741       10.7487830320
  C        21.5237274593       17.9248669678       13.1753924505
  C        21.5538234483       17.9326582549       14.5969881849
  C        22.7754906931       17.8213483743       15.3336709323
  C        14.0451602478       17.8271403089       10.2918013770
  C        15.3462168068       17.8820704823       11.0245148058
  C        15.6028662049       18.8928401741       11.9641552386
  C        16.8100275152       18.9173763395       12.6602060287
  C        17.7950829082       17.9336202054       12.4393682302
  C        17.5414609530       16.9437765700       11.4709570595
  C        16.3339567304       16.9153186040       10.7757425632
  C        19.0670910899       17.9274476365       13.2044401950
  C        19.0728864557       17.9453413800       14.6270928290
  C        17.8702908309       17.8565421653       15.3964224326
  C        46.8038203121       17.2202579280       10.1619872394
  C        45.5158433536       17.1624211405       10.9128946409
  C        45.3100025794       16.1870374520       11.9012497810
  C        44.1305177734       16.1723980100       12.6417990946
  C        43.1250477606       17.1335369008       12.4175935610
  C        43.3286874337       18.0889618337       11.4030063855
  C        44.5085539745       18.1073712355       10.6631705644
  C        41.8715440172       17.1482428380       13.2077235383
  C        41.8736633888       17.1433488258       14.6299790551
  C        43.0819268939       17.2256381798       15.3906199261
  C        20.3231613428       17.9691251195       15.3286839971
  C        20.2879015883       17.9024410318       12.5158297442
  C        46.7841453495       17.2295283628        5.8920366033
  C        45.4776054979       17.1223384631        5.1844240170
  C        45.2518256285       16.1222670476        4.2265102662
  C        44.0609261788       16.0986730183        3.5048845873
  C        43.0670272577       17.0724079058        3.7240297132
  C        43.2820833758       18.0401041267        4.7230185859
  C        44.4736821488       18.0699814784        5.4397811064
  C        41.8217473845       17.1048087611        2.9266277903
  C        41.8482768126       17.1195588796        1.5059580470
  C        43.0697887328       17.2113926157        0.7671027619
  C        46.1535175643       26.6373721332        0.7263006425
  C        46.1623884458       26.6559922493        3.5359477319
  C        14.0520042687       17.8395529296        5.7121454879
  C        15.3803422263       17.9355316269        5.0313696138
  C        15.6476058400       18.9631888913        4.1135912288
  C        16.8792749995       19.0231720988        3.4636691089
  C        17.8757753739       18.0551933000        3.7034197215
  C        17.6158223094       17.0572822937        4.6610977742
  C        16.3858523939       16.9970051424        5.3152111759
  C        19.1436035638       18.0466787098        2.9285469878
  C        19.1124444949       18.0064076275        1.5063176892
  C        17.8894680798       17.8840269235        0.7725648663
  C        28.8150998049       14.0880357146       10.3628208313
  C        28.2139570880       12.9139428800       11.0591835415
  C        28.9419413895       12.1847825039       12.0115245742
  C        28.3494210041       11.1104369297       12.6718116171
  C        27.0159261478       10.7395690525       12.4029157685
  C        26.3106988170       11.4498061371       11.4143990468
  C        26.8994651471       12.5250953789       10.7542284834
  C        26.3500273976        9.6582698913       13.1664449540
  C        26.3314058392        9.6872001434       14.5877364611
  C        26.8343128201       10.7998462897       15.3342784007
  C        32.1527674361       21.2741523348       10.1514329997
  C        32.7319352421       22.4474045352       10.8659728967
  C        31.9821997234       23.1154083497       11.8464174915
  C        32.5477518913       24.1580118876       12.5741566269
  C        33.8786547242       24.5583916411       12.3449587808
  C        34.6087933496       23.9104589808       11.3305401644
  C        34.0457996443       22.8643295199       10.6031610341
  C        34.5081156074       25.6275820595       13.1528949810
  C        34.4898224128       25.5932642728       14.5746814130
  C        33.9766674127       24.4748381805       15.3042417702
  C        25.7134252181        8.6128754473       15.3056115629
  C        25.7136545699        8.6070801314       12.4921662646
  C        32.0146501934       21.1658280157        5.7974471384
  C        32.5809369148       22.3400567525        5.0747809200
  C        31.8600975036       22.9952120839        4.0636506802
  C        32.4359709393       24.0518989635        3.3604859003
  C        33.7485124802       24.4822389645        3.6430596842
  C        34.4475581174       23.8425076755        4.6854393053
  C        33.8763246980       22.7856949252        5.3879831907
  C        34.3987268017       25.5708520232        2.8748524763
  C        34.4330970129       25.5651989667        1.4520583394
  C        33.9490357592       24.4619369487        0.6806707345
  C        40.6115242815       17.1330503820        0.7819549290
  C        40.5912472526       17.1457151511        3.5910754087
  C        28.7170269921       14.0952703736        5.8182630473
  C        28.0993459810       12.9516464851        5.0834533785
  C        28.8436329349       12.2322781331        4.1349621567
  C        28.2635103570       11.1768913792        3.4362703727
  C        26.9219894142       10.8088338623        3.6620315454
  C        26.1934525717       11.5136903551        4.6389593833
  C        26.7717263835       12.5726056211        5.3378814545
  C        26.2882333643        9.7132442416        2.8878777352
  C        26.3005010121        9.7157423801        1.4655048453
  C        26.8171199997       10.8151471522        0.7103273701
  C        18.1353992789        3.1809393182       10.3171322629
  C        17.4060127037        4.2782045730       11.0156167752
  C        16.3905440385        3.9998755733       11.9434250829
  C        15.7428316949        5.0398673582       12.6069226423
  C        16.0945144394        6.3836099017       12.3669849716
  C        17.0835352854        6.6530987587       11.4028282474
  C        17.7326293264        5.6157411454       10.7378014805
  C        15.4703038125        7.4913580112       13.1300626682
  C        15.4858278905        7.4907738034       14.5517832461
  C        16.1874492842        6.4972035608       15.3049575302
  C        42.9457831365       31.8594670967       10.0728496041
  C        43.6460799095       30.7718423934       10.8167728467
  C        44.5916339148       31.0931414267       11.8028578454
  C        45.1973112177       30.0875879615       12.5505160673
  C        44.8708600599       28.7345058201       12.3357012061
  C        43.9450145302       28.4201878406       11.3224821913
  C        43.3362373164       29.4253349685       10.5744135637
  C        45.4884850432       27.6552443938       13.1389202052
  C        45.4929209910       27.6810349571       14.5606174065
  C        44.8059625812       28.6891375615       15.3072811685
  C        14.8569132844        8.5632876370       15.2641736686
  C        14.8748968746        8.5630832634       12.4515027254
  C        42.9464257542       31.9614792326        5.8089812240
  C        43.6916791022       30.8854148084        5.0956305813
  C        44.6563976328       31.1913444171        4.1234237667
  C        45.2779678796       30.1717806440        3.4057314143
  C        44.9541186509       28.8214342680        3.6432284453
  C        44.0205270652       28.5237439945        4.6539126542
  C        43.3922069963       29.5404877364        5.3660749568
  C        45.5632072236       27.7240903228        2.8579342446
  C        45.5336030078       27.7175335929        1.4366292130
  C        44.8273218074       28.7077916063        0.6836754464
  C        35.0535188277       26.6566224172        0.7573408555
  C        35.0125772530       26.6231380209        3.5681948667
  C        18.1487268298        3.2470017467        5.7067310329
  C        17.4301718495        4.3439050979        4.9974418711
  C        16.4152025571        4.0526476838        4.0736055629
  C        15.7669127664        5.0832719493        3.3981778447
  C        16.1213522457        6.4285314331        3.6211039640
  C        17.1124253973        6.7119033195        4.5786933493
  C        17.7600686072        5.6829924756        5.2584941280
  C        15.4909195007        7.5242639298        2.8486502093
  C        15.4969220914        7.5076981516        1.4275079072
  C        16.1937291889        6.5060501692        0.6807757832
  H        10.6726867494       12.4662081235        3.9042641207
  H        11.6948964842       10.5514642059        2.6623127834
  H        15.3914739819       11.1680687014        4.7729730092
  H        14.3509615361       13.0709088093        6.0182173582
  H        13.3764527520       11.6313336977        1.2013266114
  H        50.3229281602       22.7486617906        3.9871724655
  H        49.3197783202       24.6231864502        2.6812058610
  H        45.6417912935       24.1603398075        4.8630329683
  H        46.6626768835       22.2894618730        6.1712184181
  H        47.6296782595       23.5758440071        1.2461842503
  H        14.8720541016        8.5882317013        4.6085385650
  H        50.2871897517       22.7033337488       12.0597798006
  H        49.2690480803       24.5761638975       13.3598124243
  H        45.6096539432       24.1078896572       11.1471389579
  H        46.6518556153       22.2526518763        9.8329456224
  H        47.6075204676       23.5517847160       14.7968389632
  H        40.6541557637       17.1393377676       11.4403352637
  H        48.6868376378       14.0949174481        7.7998999650
  H        10.6815500648       12.4672566990       12.0937628027
  H        11.6897845586       10.5254082754       13.2975490610
  H        15.3930973788       11.1582264449       11.2046015648
  H        14.3644705687       13.0865689141        9.9891306951
  H        13.3760747942       11.6223137134       14.7531081186
  H        47.9299417269       14.2185207000        9.7107936625
  H        47.7800307058       14.3734057661        6.4948610121
  H        49.0832944174       18.5521223395       10.8673233051
  H        10.4157929685       14.1344198026        7.9986378905
  H        24.4897425017        3.0416430577        3.9178751791
  H        25.6215079071        4.9071238116        2.6946655430
  H        23.2207432424        7.7596597314        4.8393640747
  H        22.1089714936        5.8846675628        6.0655785183
  H        23.8151339481        5.7993898593        1.2594850057
  H        36.3467808020       32.1935605936        3.9949298248
  H        35.1864581473       30.3797841743        2.7368006543
  H        37.4423217783       27.4367432380        4.9162441277
  H        38.5830254059       29.2638143936        6.1845520433
  H        36.9608165833       29.4603742855        1.3196419136
  H        25.6917705586        8.6421237464        4.6519277870
  H        36.4616908745       32.2608543776       12.1143026871
  H        35.3371726699       30.4603018888       13.4207943258
  H        37.5186336311       27.4955533841       11.1936979294
  H        38.6180807762       29.3081553665        9.8739738361
  H        37.0022868761       29.4878932009       14.8727864057
  H        46.1086150197       26.5871813033       11.3855946596
  H        44.6682235359       35.1160663767        7.8138869675
  H        24.4444167029        3.0359110645       12.0832488361
  H        25.5870274405        4.8692894109       13.3306244214
  H        23.1932703214        7.7686229237       11.2424821333
  H        22.0623397971        5.9231201742        9.9948906682
  H        23.8132270452        5.7917705347       14.8112111568
  H        44.9535606018       34.3901424828        9.6949823115
  H        44.9014094773       34.2068099140        6.4903813640
  H        40.6663200686       33.2090781190       10.8530645206
  H        23.1507662116        1.9576590307        8.0050090912
  H        25.9106401087       19.6749917631        3.8136459527
  H        23.7221183121       19.7653080418        2.6225865358
  H        22.3585134961       16.3645616799        4.8755835086
  H        24.5462928945       16.2935184091        6.0700529335
  H        23.7378185420       17.7336429805        1.2345813678
  H        35.1250522611       15.5408892239        4.0533510415
  H        37.2273380570       15.4769540516        2.7102972145
  H        38.7204932232       18.8585741662        4.9113092498
  H        36.6122526521       18.9081745264        6.2524318586
  H        37.2187161422       17.4373516596        1.2580108021
  H        20.3948555488       18.1047686771        4.6740353934
  H        35.1920030719       15.4824994659       12.1003342384
  H        37.3210563948       15.4350660354       13.4012060144
  H        38.7417574352       18.8353661980       11.1817678919
  H        36.6085483864       18.8628691187        9.8758257346
  H        37.2394978886       17.4357096671       14.8100405497
  H        35.1221575233       26.7232429524       11.4144234541
  H        28.5167857402       21.0898755116        7.9977092669
  H        25.7542657550       19.6380633521       12.1606036633
  H        23.5679372373       19.7033790363       13.3662006073
  H        22.2907087590       16.1961208038       11.2290126988
  H        24.4748803916       16.1563579404       10.0120818601
  H        23.7032503780       17.6795120912       14.7873677981
  H        29.0004131406       21.7166348876        9.7700122653
  H        29.0856718083       21.7780583774        6.5948394268
  H        32.0781592943       18.5303794550       11.0177679532
  H        27.4029646379       19.0809720941        8.0874294220
  H        14.8463745097       19.6561042508       12.1323414217
  H        17.0057745711       19.7092821693       13.3800142154
  H        18.2906481274       16.1751241096       11.2924395064
  H        16.1278984003       16.1393220688       10.0422852200
  H        16.9249754915       17.7333406572       14.8757910283
  H        46.0914002120       15.4526466851       12.0822546083
  H        43.9730776288       15.4066648717       13.3982263899
  H        42.5618479448       18.8398648494       11.2242643775
  H        44.6796131548       18.8599130752        9.8969476321
  H        44.0254971804       17.3327010681       14.8632189707
  H        20.2752179536       17.9193476566       11.4274696019
  H        46.0256089376       15.3791257234        4.0477552564
  H        43.8884622847       15.3236728191        2.7612405901
  H        42.5191746380       18.7955691765        4.8989807123
  H        44.6618795257       18.8369116225        6.1870000238
  H        44.0042492775       17.3061913982        1.3124394888
  H        46.1990488719       26.6823672440        4.6234030317
  H        52.7408632566       21.0625985663        8.1946539598
  H        14.8788135859       19.7091499756        3.9241691015
  H        17.0802444313       19.8230173234        2.7540350425
  H        18.3740678796       16.3017785004        4.8568195152
  H        16.1740489627       16.2119450176        6.0372918737
  H        16.9587597570       17.7818342039        1.3225167687
  H        52.3214231941       21.6728845589        6.2946305192
  H        52.0126081655       21.7014368373        9.4957546079
  H        49.0669699306       18.6071109674        5.2046224393
  H        13.2474091993       19.0170549367        7.9786332657
  H        29.9703498665       12.4728017687       12.2194556621
  H        28.9164694988       10.5448460481       13.4080846230
  H        25.2803898373       11.1743227724       11.1988072183
  H        26.3506835363       13.0941487369       10.0078701639
  H        27.2077206151       11.6649690939       14.7946797685
  H        30.9614682769       22.7918256911       12.0358557651
  H        31.9619301219       24.6739554327       13.3316159261
  H        35.6389061706       24.2093732391       11.1478482060
  H        34.6173269425       22.3374364496        9.8427137575
  H        33.6318322771       23.6033955527       14.7547297855
  H        25.7465392283        8.5871130946       11.4042286394
  H        30.8526018300       22.6578419691        3.8312757040
  H        31.8681520151       24.5581532107        2.5829831597
  H        35.4630587772       24.1600715597        4.9128335404
  H        34.4260648011       22.2727160842        6.1734054296
  H        33.5833996862       23.5797583235        1.1982603170
  H        40.5840865759       17.1101657455        4.6788074031
  H        32.5117497096       14.1469273355        8.2613476623
  H        29.8814541299       12.5077409861        3.9639114124
  H        28.8501741737       10.6181483583        2.7102827766
  H        25.1555644947       11.2426903678        4.8215917038
  H        26.2040310616       13.1309469322        6.0786154468
  H        27.1766597685       11.6919279442        1.2412022032
  H        33.3078909345       14.2201509494        6.4590974976
  H        33.4123110770       14.4063495738        9.6008244795
  H        32.0861362057       18.5257955403        5.1114587737
  H        30.2441698495       14.1965262102        8.0783076714
  H        16.1186546933        2.9633669510       12.1300535138
  H        14.9535543114        4.8204726786       13.3227704480
  H        17.3656719361        7.6859950427       11.2094007029
  H        18.5144148122        5.8183753842       10.0096798612
  H        16.7539650681        5.7398352852       14.7714529652
  H        44.8279608460       32.1402062369       11.9770591608
  H        45.9371953401       30.3413307280       13.3064442042
  H        43.6822594782       27.3781277974       11.1523904581
  H        42.5996558463       29.1899094666        9.8097408908
  H        44.2305232493       29.4368806474       14.7690375482
  H        14.8508410309        8.5461777442       11.3632900385
  H        44.9000358297       32.2340134151        3.9320466846
  H        46.0249745643       30.4130120665        2.6525961969
  H        43.7634742519       27.4840184783        4.8453885243
  H        42.6456224197       29.3175696627        6.1244016622
  H        44.2687928729       29.4706610990        1.2182595162
  H        34.9614386907       26.6321910712        4.6554413292
  H        36.6051551489       35.1341513734        8.1805735285
  H        16.1442612693        3.0130614973        3.9037131827
  H        14.9747258253        4.8564043764        2.6879451136
  H        17.3956457320        7.7473987228        4.7558706418
  H        18.5426614455        5.8934379031        5.9835652747
  H        16.7651412549        5.7557770517        1.2191921579
  H        36.2790686298       34.4821606353        6.2731606559
  H        36.3808629685       34.2091188542        9.4994046523
  H        40.5785521514       33.2014793487        5.1545521871
  H        17.4712999769        1.9470795079        7.9740978968
  H        28.9851673765       19.0662125643       12.5230042135
  H        31.0952929032       15.1267610588        3.9070679377
  H        31.5897930068       15.6058082221       12.5843502458
  H        28.2265554287       17.5671460635       14.7499255821
  H        29.5112782599       15.0231962663       14.1548978667
  H        28.6088291939       17.7222478648        1.5097218172
  H        31.1900059492       19.5608337488       13.7364460022
  H        18.8538566029        0.8691092877       12.3352889524
  H        40.5280139098       35.2290380493        3.9521208080
  H        42.3237419428       34.4185037305        3.5910750853
  H        22.0879889450        0.6919235353       12.3515513831
  H        11.5970848514       18.7130953567       12.3821499368
  H        52.2648184003       18.4305777426        3.6770561646
  H        49.2550918322       16.4770123816        3.5847246629
  H        10.1494614456       15.7981519421       12.2931504564
  H        50.8497548897       17.6923401502        3.9543984983
  H        10.0458229522       17.3944143102       12.0520541201
  H        20.2151035472        0.0023180850       12.0419525154
  H        39.1835839826       36.1243848911        3.6864255598
 Ni        30.4377378225       17.0013530459        2.8308551443
 Ni        30.0155114094       16.2995648843        0.0840088926
 Ni        30.2704799644       18.5989878706       -0.3312957253
 Ni        30.1394785042       17.2567391720       13.3198517302
  O        10.6500465506       14.3650747554        5.4858523055
  O        12.6133309014       14.6577059106        6.5839016531
  O        49.1479399542       16.8459197601        7.9897213576
  O        50.3502713318       20.9356905936        5.6480520794
  O        48.3485852574       20.5932716011        6.6659696111
  O        11.0517789999       17.0537302704        6.5007161774
  O        50.3209506892       20.8816757850       10.4068139751
  O        48.3467377000       20.5867839273        9.3271259154
  O        49.5436482965       18.2484087706       10.0682823600
  O        12.3593266283       18.6243760523        7.9994703782
  O        48.6932547676       14.1485946079        6.7512568876
  O         8.2097738885       14.2104454976        9.3226383433
  O        10.7353166917       14.5067398970       10.6643070098
  O        12.5718509762       14.5829543643        9.3283805065
  O        22.8448792971        2.0446549362        5.4867923646
  O        21.6053528562        3.5924893514        6.5901799159
  O        42.0579304447       34.1372109375        7.9789508382
  O        37.9813058473       33.1365726307        5.5722479737
  O        39.2167769792       31.5748737140        6.6650880497
  O        20.3084941307        1.0397986825        6.5022522282
  O        38.0250392385       33.1866993265       10.4150822465
  O        39.2179424977       31.5829524967        9.3281912759
  O        40.6522571097       33.7692500409       10.0600767012
  O        18.2559578998        1.3758615385        7.9968177234
  O        44.6221293698       35.1005983992        6.7586983215
  O        24.2053872373        0.0000197585        9.3207845868
  O        22.7536409621        2.0582464903       10.5844035148
  O        21.6257525845        3.5976056697        9.3454222524
  O        27.6258375474       18.6889967629        5.4122317133
  O        26.7391834223       17.0016064841        6.6597296363
  O        30.6543847474       19.4058221490        8.0755305851
  O        33.6269806199       16.3395805533        5.8213508366
  O        34.2696647129       18.3146850522        6.7395227469
  O        29.5733561005       17.0605623801        6.5859380555
  O        33.6153335298       16.3298171660       10.4095085801
  O        34.3032174177       18.2494601551        9.4077691789
  O        31.6556004634       18.3199111752       10.1661624821
  O        30.3275965110       15.1641950260        8.0832153589
  O        28.5516061946       21.0299036096        6.9122279149
  O        28.5153129717       20.9537083222        9.4116342089
  O        27.4584543758       18.6792172530       10.6615885701
  O        26.6932413436       16.9315074771        9.4153496781
  O        13.1483609323       18.6931004619       10.5875293363
  O        13.9200889108       16.9163877469        9.4058583157
  O        50.5960639356       19.3501178422        8.0201405240
  O        47.6822923600       16.3274780636       10.4177859101
  O        46.9508469588       18.1757612304        9.3255590508
  O        11.0700599903       17.0151904932        9.4894982563
  O        47.6756036507       16.3353986055        5.6530381465
  O        46.9285557373       18.2355845195        6.6652816489
  O        49.5691943770       18.3176796800        5.9823902964
  O        10.3186683914       15.1002920945        7.9970473689
  O        52.6707221804       21.0278168381        9.2418312550
  O        12.1468346923       20.8911516192        6.6731830546
  O        13.1099406184       18.6140975842        5.3252722232
  O        13.9603343244       16.9884357783        6.6629336743
  O        30.0041138746       14.4398877709       10.6685665993
  O        28.0805867155       14.6576232420        9.4847005294
  O        32.1036581416       16.9159089751        8.0857302288
  O        30.9503346746       20.9498340104       10.4208645200
  O        32.9169649932       20.6576157453        9.3275825564
  O        29.5693090896       17.0763413845        9.5781690626
  O        30.8060052243       20.7990850223        5.4999889815
  O        32.7712377805       20.5975479768        6.6501462627
  O        31.6094842845       18.2431630562        5.9096409895
  O        28.2875532271       18.6791620865        8.0843580014
  O        32.4937666603       14.2176778816        9.3319792580
  O        32.4062638691       14.2157100390        6.8233705403
  O        29.9056288369       14.4361689537        5.4996463186
  O        28.0080478389       14.6469233112        6.7370673984
  O        17.8892444566        1.9666420442       10.6628053804
  O        18.9563589837        3.5271424011        9.4079921621
  O        39.1686141555       34.1385617684        7.9970638589
  O        43.2801520861       33.0589850371       10.3316396567
  O        42.0343118096       31.5065447826        9.2415789674
  O        20.3178314928        1.0367528958        9.4802371807
  O        43.2760082928       33.1825515588        5.5749424062
  O        42.0051650690       31.5841108287        6.5830229161
  O        40.5791121644       33.7751195940        5.9359969325
  O        22.3673649569        1.3848103990        7.9980862922
  O        36.6727423093       35.0997991615        9.2332118830
  O        16.4457557188        0.0642124506        6.6682168719
  O        17.9365420277        2.0434573416        5.3264029295
  O        18.9191902310        3.5930993708        6.6660798583
  O        29.8183025515       18.8377873914       12.0603201881
  O        31.4247867610       16.0324646873        4.0845456117
  O        31.3822317242       16.4104691101       12.0722880360
  O        29.5633889750       17.6529985564        1.3198894136
  O        30.2931477550       15.5464517115       14.4157325823
  O        31.5468567951       19.0571972949       14.4962467143
  O        28.8063734732       18.2345835792       14.3340969107
  O        39.4568228708       35.2437947061        4.0019874044
  O        19.1417605791        0.0046770819       11.9904891943
  O        41.9696359266       35.1727970225        4.0872950812
  O        21.6913617260       -0.0693360228       11.8958339261
  O        51.3652354875       18.6141754779        4.0055015265
  O        10.7511877299       18.7471754130       11.9048041516
  O        50.0796806503       16.4128553640        4.0917966605
  O         9.5240038715       16.4831623282       11.9911965643
 Zr         9.2961992939       16.0528099646        6.1824337042
 Zr        49.8354049094       16.0067510796        9.7464633854
 Zr        22.0731371982        0.0297024614        6.1890733200
 Zr        42.4609344726       35.1532482611        9.8009401725
 Zr        29.6116233890       19.0910136297        6.3650323956
 Zr        29.5746835033       19.1615001789        9.9307717077
 Zr        11.0373066549       19.0517447815        9.8273374449
 Zr        11.0436848335       19.1546150721        6.2509546724
 Zr        31.3524564535       16.1120486193        9.9025707519
 Zr        31.4050494842       16.0185859830        6.3036913077
 Zr        18.6010230284       -0.0016660879        9.7633753707
 Zr        18.5067005289       -0.0079454901        6.2135693173
 Zr        12.3021731915       16.3238365632        7.9895129359
 Zr        48.6154206094       18.8328904267        8.0105604704
 Zr        20.3156430489        2.4735927456        7.9913570446
 Zr        40.6429718992       32.6863864548        7.9779070566
 Zr        28.3384328209       16.3462044897        8.0870222464
 Zr        32.6405890513       18.8664923352        8.0816646545
  H        29.8858718402       17.9794416369        3.7993979014
