     566
 i =      104, E =     -4712.2480610302
  C        11.8588034964       14.0537016088        5.7415813638
  C        12.4563297744       12.8907398172        5.0233232091
  C        11.7045196775       12.1716582137        4.0818607351
  C        12.2808728461       11.1094532909        3.3894887772
  C        13.6215066170       10.7397763144        3.6170740064
  C        14.3547904507       11.4435273616        4.5903154744
  C        13.7819548933       12.5085450007        5.2818277122
  C        14.2610107591        9.6490803255        2.8436649109
  C        14.2563727767        9.6569993836        1.4219580324
  C        13.7432749776       10.7591645492        0.6680653627
  C        49.1270154223       21.2329377281        5.8796163927
  C        48.5503655201       22.4010270306        5.1525960045
  C        49.3003819536       23.0682699630        4.1715387901
  C        48.7335076214       24.1074875088        3.4383802680
  C        47.4030359269       24.5093078778        3.6671051657
  C        46.6721121980       23.8605143770        4.6806972842
  C        47.2345050579       22.8155456607        5.4100114525
  C        46.7727584828       25.5870247764        2.8698495879
  C        46.7616537767       25.5574228557        1.4480752221
  C        47.2616008644       24.4423561751        0.7045461389
  C        14.8603052160        8.5706522342        0.7086934911
  C        14.8917437950        8.5971062466        3.5203127628
  C        49.1131540898       21.2033149304       10.1453239021
  C        48.5277446929       22.3647094133       10.8724854182
  C        49.2670248498       23.0254960234       11.8653126256
  C        48.6907239848       24.0600662823       12.5967880400
  C        47.3602839442       24.4568086945       12.3586476710
  C        46.6398083513       23.8118159973       11.3352188434
  C        47.2133358070       22.7758927709       10.6034170859
  C        46.7218502064       25.5317931977       13.1497026013
  C        46.7336680330       25.5282006936       14.5714158306
  C        47.2492296816       24.4290350970       15.3277833585
  C        40.6173939961       17.0711017176       15.3170777343
  C        40.6356350585       17.0968366518       12.5068050435
  C        11.8831383109       14.0867612062       10.2853468209
  C        12.4725972450       12.9110250043       10.9896852915
  C        11.7150795966       12.1777245004       11.9157151661
  C        12.2816880165       11.0952873489       12.5841560564
  C        13.6205684078       10.7216933895       12.3524766880
  C        14.3585701634       11.4373700163       11.3917783598
  C        13.7931068837       12.5185145349       10.7190515998
  C        14.2541201126        9.6248766141       13.1228730104
  C        14.2527409059        9.6447663468       14.5447216532
  C        13.7428384623       10.7536955586       15.2918075216
  C        22.5116785100        3.2464039757        5.7535686013
  C        23.2231672676        4.3565514938        5.0565513849
  C        24.2239348817        4.0858253382        4.1116519024
  C        24.8452956142        5.1315171607        3.4331082631
  C        24.4817646392        6.4708937308        3.6784403546
  C        23.5096015466        6.7331606444        4.6608400211
  C        22.8840040547        5.6894260578        5.3379528585
  C        25.0792928099        7.5826982943        2.9029283478
  C        25.0543284808        7.5721399339        1.4811937346
  C        24.3559332572        6.5686068641        0.7370483892
  C        38.2960314421       31.9276104306        5.8525529187
  C        37.5494580713       30.8395574685        5.1540762175
  C        36.5812140831       31.1480989454        4.1856501949
  C        35.9458947884       30.1318061005        3.4767871429
  C        36.2623802026       28.7790066789        3.7115816333
  C        37.1993605199       28.4779769388        4.7185822584
  C        37.8386140691       29.4933596288        5.4272313986
  C        35.6496026283       27.6927483362        2.9103192122
  C        35.6897272385       27.7109627720        1.4876846954
  C        36.4034213803       28.7125301968        0.7571776648
  C        25.6745523639        8.6421053419        0.7588527439
  C        25.6650383209        8.6657582396        3.5716828263
  C        38.3304354854       31.9615293187       10.1605919089
  C        37.6125104405       30.8912059549       10.9115939917
  C        36.6804412474       31.2053400260       11.9129711871
  C        36.0672793575       30.1917927835       12.6472924587
  C        36.3708094593       28.8369360882       12.4047093152
  C        37.2846151912       28.5328015110       11.3765995162
  C        37.8996664898       29.5429073435       10.6433194226
  C        35.7507755843       27.7410486770       13.1854737867
  C        35.7412794469       27.7359418647       14.6084854946
  C        36.4268496754       28.7254190282       15.3802403006
  C        46.1356460206       26.6208191966       15.2815811433
  C        46.0877839087       26.5801126890       12.4736797393
  C        22.4598576114        3.2567520988       10.2598000705
  C        23.1504273803        4.3665957931       10.9860014464
  C        24.1471860151        4.0825274573       11.9332035005
  C        24.7714402334        5.1138358269       12.6314236932
  C        24.4200719627        6.4598436609       12.4049044536
  C        23.4460231538        6.7370109264       11.4267332752
  C        22.8167166872        5.7059744261       10.7296188539
  C        25.0487793381        7.5605377647       13.1784850417
  C        25.0389486591        7.5599626916       14.6015381090
  C        24.3457350486        6.5646227230       15.3602582268
  C        26.6822377112       17.8816736761        5.7302715652
  C        25.3835186365       17.9716752357        5.0005087923
  C        25.1636339127       18.9213883836        3.9902292114
  C        23.9349212923       18.9733679878        3.3311716275
  C        22.8940561339       18.0743082629        3.6484022399
  C        23.1163632015       17.1486269177        4.6861852748
  C        24.3395334897       17.0959854159        5.3488466585
  C        21.6115931864       18.0596135147        2.8984840868
  C        21.5995825936       18.0007287714        1.4762147114
  C        22.7971787289       17.8418963344        0.7094001847
  C        34.4232479741       17.2261915083        5.9185307531
  C        35.7139192889       17.1595732567        5.1768302694
  C        35.9053698573       16.1911566456        4.1777808119
  C        37.0866301273       16.1647810010        3.4413888935
  C        38.1095027169       17.1040642123        3.6817246141
  C        37.9194365846       18.0513851290        4.7068724102
  C        36.7363466721       18.0841876941        5.4411971306
  C        39.3640318252       17.1014524185        2.8943941112
  C        39.3597028108       17.1029526481        1.4714840969
  C        38.1539753512       17.2233204664        0.7120358682
  C        20.3471918264       18.0078647797        0.7769774555
  C        20.3887134808       18.0696023333        3.5890714492
  C        34.4455774171       17.2350273971       10.1916791994
  C        35.7463225143       17.1312938437       10.9084564156
  C        35.9473414595       16.1539916965       11.8953650427
  C        37.1371632692       16.1208049438       12.6178829223
  C        38.1559777006       17.0634624049       12.3751091975
  C        37.9615306286       18.0121141807       11.3530366894
  C        36.7710968526       18.0510460375       10.6335931854
  C        39.4034691255       17.0786808299       13.1709830833
  C        39.3800321503       17.0919810897       14.5931206357
  C        38.1633358614       17.2157065872       15.3348892614
  C        35.0998125509       26.6584202591       15.3059407913
  C        35.1657819899       26.6711991046       12.4958496113
  C        26.5645966408       17.8294496330       10.3267777916
  C        25.2503689718       17.8795867843       11.0285849945
  C        24.9924841201       18.8788948109       11.9797607945
  C        23.7739332212       18.9077953202       12.6515161525
  C        22.7834447593       17.9368815933       12.3993165019
  C        23.0360997905       16.9632651036       11.4154049419
  C        24.2548642413       16.9323859456       10.7402776470
  C        21.5223610357       17.9217067815       13.1769856379
  C        21.5539363191       17.9293045508       14.5987103420
  C        22.7752200248       17.8089783113       15.3339541106
  C        14.0454083119       17.8272859736       10.2924388945
  C        15.3456438962       17.8826611251       11.0258003983
  C        15.6002251819       18.8918377791       11.9679153420
  C        16.8066896820       18.9167356948       12.6650785865
  C        17.7936553017       17.9348741097       12.4435552372
  C        17.5419295126       16.9467894856       11.4725860184
  C        16.3352729130       16.9180027167       10.7759749324
  C        19.0657580636       17.9290750029       13.2084584597
  C        19.0731524893       17.9501713783       14.6313244121
  C        17.8714711558       17.8655272354       15.4022938341
  C        46.8029820691       17.2168441974       10.1587835414
  C        45.5114310966       17.1471753920       10.9033668433
  C        45.3097456600       16.1639951710       11.8848780982
  C        44.1273315302       16.1342949575       12.6198795798
  C        43.1144129301       17.0875488063       12.3965364010
  C        43.3135782561       18.0506977052       11.3884421573
  C        44.4969259421       18.0842566277       10.6541192488
  C        41.8600801043       17.0876263460       13.1853166870
  C        41.8647080781       17.0855790038       14.6082575868
  C        43.0726276741       17.1823234811       15.3676916444
  C        20.3242837432       17.9720273794       15.3317252981
  C        20.2858750705       17.9010660367       12.5186178716
  C        46.7826437162       17.2306421087        5.8883628136
  C        45.4779682890       17.1214074004        5.1734619409
  C        45.2578814342       16.1176052148        4.2176205779
  C        44.0686427622       16.0851947730        3.4929568644
  C        43.0676522242       17.0533896912        3.7058053388
  C        43.2783971688       18.0273717885        4.7001417452
  C        44.4687954510       18.0659964706        5.4201351455
  C        41.8200181119       17.0699002752        2.9088355923
  C        41.8441386135       17.0748432413        1.4867856628
  C        43.0629412322       17.1738225515        0.7449537319
  C        46.1535216636       26.6372661641        0.7263507963
  C        46.1627799150       26.6561302452        3.5359969471
  C        14.0538966954       17.8413920173        5.7128711657
  C        15.3835826418       17.9416253526        5.0350824666
  C        15.6500583532       18.9704479618        4.1180623381
  C        16.8824772068       19.0338326367        3.4696276142
  C        17.8815813710       18.0682334204        3.7091639723
  C        17.6226271511       17.0699035478        4.6668814331
  C        16.3920074120       17.0062659274        5.3199111948
  C        19.1494251425       18.0607637342        2.9330742991
  C        19.1165328924       18.0170912084        1.5106970399
  C        17.8926976885       17.8954976539        0.7784977058
  C        28.8072758647       14.0922956393       10.3914599928
  C        28.1931974080       12.9178888941       11.0748845543
  C        28.9131355917       12.1767771165       12.0237839072
  C        28.3101441912       11.1053897862       12.6777681127
  C        26.9730690951       10.7503868478       12.4068686553
  C        26.2756462885       11.4701401691       11.4200373517
  C        26.8761093512       12.5422146486       10.7647137121
  C        26.3004622598        9.6744883524       13.1712844422
  C        26.2838880956        9.7069820947       14.5925530056
  C        26.7845825200       10.8231948207       15.3354230253
  C        32.1763258488       21.2460059068       10.1522938440
  C        32.7663426398       22.4156614775       10.8646040359
  C        32.0157151866       23.0900323677       11.8406023461
  C        32.5816191131       24.1327883232       12.5672705990
  C        33.9144541866       24.5292860141       12.3421137755
  C        34.6467381440       23.8740406809       11.3335719682
  C        34.0833333278       22.8264275555       10.6073033245
  C        34.5393559955       25.6033682989       13.1480176255
  C        34.5158668272       25.5751025436       14.5703985505
  C        34.0031295802       24.4586333690       15.3024668243
  C        25.6730977250        8.6312655180       15.3137671497
  C        25.6655997209        8.6209671932       12.5003191004
  C        32.0845967032       21.1639331977        5.8323990406
  C        32.6378975428       22.3346855211        5.0998573249
  C        31.9116827253       22.9665560017        4.0771661648
  C        32.4767720169       24.0213046399        3.3629264175
  C        33.7822600119       24.4734617541        3.6458771043
  C        34.4858304591       23.8559646598        4.6992656215
  C        33.9267924639       22.8002902185        5.4119497342
  C        34.4225164828       25.5624492197        2.8718126580
  C        34.4547497339       25.5545745120        1.4485936721
  C        33.9736582326       24.4490707553        0.6791162126
  C        40.6066135369       17.0711890475        0.7626279763
  C        40.5886704569       17.1014627524        3.5732949353
  C        28.6861575841       14.1197712143        5.8190666043
  C        28.0771499309       12.9757394283        5.0813568128
  C        28.8248064938       12.2575534482        4.1344430782
  C        28.2461761006       11.2005224476        3.4359307312
  C        26.9054953605       10.8291338916        3.6624045805
  C        26.1747143873       11.5335944672        4.6380492878
  C        26.7498018055       12.5945062050        5.3356547149
  C        26.2723678881        9.7298999749        2.8919994682
  C        26.2719776436        9.7350055654        1.4696994993
  C        26.7762554108       10.8382987056        0.7117043549
  C        18.1353350191        3.1809548382       10.3171898200
  C        17.4061300916        4.2782200209       11.0158137266
  C        16.3903953769        3.9999386686       11.9433494557
  C        15.7427278379        5.0399698976       12.6068225115
  C        16.0946706870        6.3836930076       12.3671251996
  C        17.0840429815        6.6531271518       11.4033139405
  C        17.7330761457        5.6157413901       10.7382737912
  C        15.4703998594        7.4914324992       13.1301674398
  C        15.4855655033        7.4906674815       14.5518850921
  C        16.1870082970        6.4969875884       15.3050728992
  C        42.9457657272       31.8594795682       10.0728239039
  C        43.6460809626       30.7718121396       10.8168222969
  C        44.5915284074       31.0931315473       11.8029851445
  C        45.1972255640       30.0875940864       12.5506690504
  C        44.8708986283       28.7345036525       12.3357815856
  C        43.9451738162       28.4201757536       11.3224616592
  C        43.3363555824       29.4253039071       10.5743959866
  C        45.4885455700       27.6552205990       13.1389706977
  C        45.4928073573       27.6808821903       14.5606714361
  C        44.8056810475       28.6888632115       15.3073467734
  C        14.8566323165        8.5631784093       15.2642555609
  C        14.8752838272        8.5633103528       12.4515831424
  C        42.9464206885       31.9615872017        5.8089872957
  C        43.6917694682       30.8854721334        5.0956362493
  C        44.6562776282       31.1913868082        4.1232370693
  C        45.2778644827       30.1718160084        3.4055474259
  C        44.9542687396       28.8214605538        3.6432740752
  C        44.0209244767       28.5237984802        4.6541910312
  C        43.3925756759       29.5405452815        5.3663360309
  C        45.5633328881       27.7240826021        2.8579872970
  C        45.5335205069       27.7173844625        1.4366815517
  C        44.8270432446       28.7075159144        0.6837417852
  C        35.0710138371       26.6470877384        0.7517009693
  C        35.0328738752       26.6187302111        3.5624028537
  C        18.1485311622        3.2469955530        5.7066593922
  C        17.4299502758        4.3438347301        4.9974007869
  C        16.4148329056        4.0525690011        4.0737198033
  C        15.7664994195        5.0831993773        3.3983585724
  C        16.1210420407        6.4284577297        3.6211721482
  C        17.1122975069        6.7118393779        4.5785683724
  C        17.7599682562        5.6829248482        5.2583310521
  C        15.4905464718        7.5241520471        2.8487245140
  C        15.4964537725        7.5075122238        1.4275892954
  C        16.1931699192        6.5057820646        0.6808861175
  H        10.6723461789       12.4657076968        3.9049627316
  H        11.6945211590       10.5508663255        2.6630796854
  H        15.3919199944       11.1691504274        4.7718166600
  H        14.3515938412       13.0720607103        6.0169104918
  H        13.3762693334       11.6312826424        1.2013970627
  H        50.3230338169       22.7481067829        3.9866826245
  H        49.3200209429       24.6226693772        2.6807658434
  H        45.6426751979       24.1614136630        4.8639713019
  H        46.6635082825       22.2903756990        6.1721692666
  H        47.6302398778       23.5760034162        1.2462039172
  H        14.8720887963        8.5883939112        4.6086201415
  H        50.2870950690       22.7026789968       12.0601620428
  H        49.2691915541       24.5755536754       13.3602141734
  H        45.6103696769       24.1090004593       11.1462476968
  H        46.6524459329       22.2536552587        9.8319497833
  H        47.6080395759       23.5519308665       14.7968785834
  H        40.6424867028       17.0650215401       11.4189175514
  H        48.6871601242       14.0951180498        7.8000506225
  H        10.6815404990       12.4666497290       12.0929636548
  H        11.6898550830       10.5247890359       13.2967369049
  H        15.3940671314       11.1596400067       11.2059740117
  H        14.3654689384       13.0879309382        9.9905677272
  H        13.3761172966       11.6223585941       14.7531738867
  H        47.9301361386       14.2192635487        9.7106653846
  H        47.7800754011       14.3744752776        6.4954033175
  H        49.0834552202       18.5519842777       10.8671334890
  H        10.4162149526       14.1344672591        7.9986114044
  H        24.4927093031        3.0495892663        3.9185681675
  H        25.6210925959        4.9204332502        2.7002767387
  H        23.2203213025        7.7634758972        4.8573418903
  H        22.1111041185        5.8833465367        6.0776264016
  H        23.7959898837        5.8120366399        1.2789166865
  H        36.3512678503       32.1926789262        3.9893346017
  H        35.1968372252       30.3778089234        2.7272614646
  H        37.4531536428       27.4372912400        4.9096592465
  H        38.5873383235       29.2654268744        6.1823498131
  H        36.9644689061       29.4613582448        1.3085044523
  H        25.6950691760        8.6537364213        4.6597575309
  H        36.4554420368       32.2506702565       12.1121200864
  H        35.3374625942       30.4427624538       13.4138649848
  H        37.5333826555       27.4914719603       11.1829363609
  H        38.6253703963       29.3112539188        9.8674451467
  H        37.0068123991       29.4836879127       14.8619422808
  H        46.1091389322       26.5874814111       11.3856424252
  H        44.6681631519       35.1161471956        7.8139356771
  H        24.4240493768        3.0446266631       12.1039954972
  H        25.5482269499        4.8852995572       13.3580352354
  H        23.1622218487        7.7711589556       11.2422714901
  H        22.0490481736        5.9183044045        9.9890565214
  H        23.7769546353        5.8058425424       14.8306142765
  H        44.9536848118       34.3904092102        9.6952209553
  H        44.9013083899       34.2067608960        6.4904950604
  H        40.6661047676       33.2089464708       10.8529515262
  H        23.1503458272        1.9580311407        8.0057746227
  H        25.9654895890       19.6090275289        3.7294244009
  H        23.7711791580       19.7194347094        2.5566146846
  H        22.3293644026       16.4425332692        4.9429938690
  H        24.5152055991       16.3674396297        6.1363030566
  H        23.7412403954       17.7129923199        1.2304925948
  H        35.1118342998       15.4719144420        3.9871045172
  H        37.2327275792       15.4059832533        2.6757469231
  H        38.6993758510       18.7855823708        4.8979468245
  H        36.5762473094       18.8315950018        6.2148818525
  H        37.2141635755       17.3555814419        1.2403204053
  H        20.4027555125       18.1300975718        4.6760322364
  H        35.1530969131       15.4391061746       12.0972681749
  H        37.2892233740       15.3607429645       13.3810575294
  H        38.7403630640       18.7466721499       11.1590542096
  H        36.6021547518       18.8043292140        9.8680132476
  H        37.2306539709       17.3411681294       14.7924221297
  H        35.1512734815       26.6973598347       11.4079012985
  H        28.5149446636       21.0922287318        8.0027465687
  H        25.7595511259       19.6240084120       12.1779319721
  H        23.5756014120       19.6866257304       13.3845719484
  H        22.2811750612       16.2060244527       11.2138100189
  H        24.4644226010       16.1672173032        9.9966480348
  H        23.7018409905       17.6569497024       14.7885847740
  H        29.0005384994       21.7207036643        9.7667043036
  H        29.0759409481       21.7885234738        6.5978278478
  H        32.0594658275       18.5384106487       11.0235167064
  H        27.4033765620       19.0821618542        8.0822193468
  H        14.8427520278       19.6539155601       12.1369826133
  H        17.0006533617       19.7077840737       13.3862958288
  H        18.2923424483       16.1795603165       11.2930989427
  H        16.1314075310       16.1432429518       10.0405997211
  H        16.9250962893       17.7429916779       14.8834948500
  H        46.0970984453       15.4358813612       12.0651828184
  H        43.9737146580       15.3633947345       13.3718608742
  H        42.5409108255       18.7958878525       11.2107802287
  H        44.6647810774       18.8426590363        9.8928875851
  H        44.0147032272       17.2957827951       14.8389291975
  H        20.2720783849       17.9176574951       11.4302537189
  H        46.0348045375       15.3766025390        4.0435696537
  H        43.9027065540       15.3054511063        2.7527401842
  H        42.5122234494       18.7805520943        4.8719875006
  H        44.6507236826       18.8373666645        6.1645097350
  H        43.9977177300       17.2795151418        1.2878884728
  H        46.1997110438       26.6826877396        4.6234394758
  H        52.7410918857       21.0627432228        8.1946671830
  H        14.8798666714       19.7146926623        3.9275574438
  H        17.0817990201       19.8345357578        2.7604776142
  H        18.3825373367       16.3162979525        4.8635019803
  H        16.1821191832       16.2203255825        6.0416151290
  H        16.9623343593       17.7961282691        1.3295062986
  H        52.3222994290       21.6731187812        6.2942745029
  H        52.0132286042       21.7019450488        9.4958005394
  H        49.0676026622       18.6070738957        5.2039816478
  H        13.2477090042       19.0169090965        7.9789376676
  H        29.9426766860       12.4561538345       12.2358476387
  H        28.8697078631       10.5310035350       13.4129028233
  H        25.2426824813       11.2060325771       11.2029288175
  H        26.3336475658       13.1200449399       10.0205081333
  H        27.1493232071       11.6900900107       14.7926059449
  H        30.9941162265       22.7688777980       12.0287507205
  H        31.9939281549       24.6525643401       13.3207060936
  H        35.6783864964       24.1693198503       11.1534385615
  H        34.6570720984       22.2955923253        9.8511452293
  H        33.6583372993       23.5866960563       14.7540262315
  H        25.6980814374        8.5979430380       11.4124518803
  H        30.9104925044       22.6114786208        3.8429764834
  H        31.9046485970       24.5099396402        2.5773918638
  H        35.4956632979       24.1907537006        4.9270245891
  H        34.4802619809       22.3050482752        6.2060484897
  H        33.6072016757       23.5681428023        1.1980960582
  H        40.5823209258       17.0723347998        4.6612871449
  H        32.5194691511       14.1370162847        8.3502374435
  H        29.8635291791       12.5330729894        3.9658067425
  H        28.8338511241       10.6422441885        2.7103725142
  H        25.1373334397       11.2605253196        4.8202751359
  H        26.1799424419       13.1530172632        6.0745832150
  H        27.1330065342       11.7174346466        1.2407422184
  H        33.2684321745       14.1393015847        6.4049439485
  H        33.4037283127       14.4355871335        9.6675486507
  H        32.1443962589       18.5837112045        5.1141865111
  H        30.2284710525       14.1925711376        8.0879549985
  H        16.1182579755        2.9634589819       12.1297737061
  H        14.9532400506        4.8206293528       13.3224520015
  H        17.3664865253        7.6859886919       11.2101434076
  H        18.5150827104        5.8183649394       10.0103897964
  H        16.7535352990        5.7396117638       14.7715976359
  H        44.8277774559       32.1402110048       11.9772142436
  H        45.9370257553       30.3413691731       13.3066682343
  H        43.6825560227       27.3780994177       11.1522802055
  H        42.5998560127       29.1899228505        9.8096317737
  H        44.2301904936       29.4365559809       14.7690859445
  H        14.8516067073        8.5466231225       11.3633594123
  H        44.8997013512       32.2340720084        3.9316721769
  H        46.0246566689       30.4130774021        2.6522103951
  H        43.7640838196       27.4840594352        4.8458614948
  H        42.6461513243       29.3176858321        6.1248371350
  H        44.2684616947       29.4703401457        1.2183351199
  H        34.9825720951       26.6296723300        4.6496381753
  H        36.6050946849       35.1340384782        8.1806232462
  H        16.1437991040        3.0129940341        3.9039175181
  H        14.9742179476        4.8563442582        2.6882291034
  H        17.3956759797        7.7473230204        4.7555766212
  H        18.5426902843        5.8934112663        5.9832466799
  H        16.7645331344        5.7554866523        1.2193167875
  H        36.2787916690       34.4823169117        6.2731008913
  H        36.3807932197       34.2091150729        9.4995760685
  H        40.5788590362       33.2018451361        5.1544154437
  H        17.4709995487        1.9470500866        7.9740649110
  H        29.0136462110       19.2834232770       12.5546360888
  H        30.6453058203       15.2531249455        3.8349834027
  H        31.4868629680       15.7291135798       12.6465122938
  H        28.0000893460       17.6294312396       14.3550775497
  H        29.9080906090       15.5735431838       14.8068965025
  H        32.6508232623       17.7387960606        1.8962899360
  H        18.8530674738        0.8688785399       12.3351980506
  H        40.5279015723       35.2290773147        3.9520736369
  H        42.3241661007       34.4188697590        3.5909216352
  H        22.0877132222        0.6920576418       12.3512975847
  H        11.5969631809       18.7129728911       12.3820788477
  H        52.2651725087       18.4309019974        3.6771978393
  H        49.2551200193       16.4770216878        3.5846011640
  H        10.1502949644       15.7983480664       12.2929976527
  H        50.8502771941       17.6924230091        3.9542569977
  H        10.0461555445       17.3947100902       12.0519853614
  H        20.2142085178        0.0021304805       12.0420464688
  H        39.1835750726       36.1244138883        3.6864363035
 Ni        30.2713988026       18.3089077736        2.1668639483
 Ni        30.7378037443       17.0078560042        0.4149654621
 Ni        29.0742725716       18.5137962322        0.2431717919
 Ni        30.1428242965       17.4981822690       13.4042367021
  O        10.6499909052       14.3651613996        5.4858737318
  O        12.6133229731       14.6577434778        6.5838879181
  O        49.1476771062       16.8459065113        7.9896643391
  O        50.3503831999       20.9354822305        5.6479438636
  O        48.3485984647       20.5932106112        6.6659051102
  O        11.0519090130       17.0536305107        6.5008361489
  O        50.3209514571       20.8816427656       10.4067812897
  O        48.3466957074       20.5866700508        9.3270431087
  O        49.5437074521       18.2483426205       10.0680276904
  O        12.3594772764       18.6244471742        7.9994042213
  O        48.6931861557       14.1486906765        6.7512721301
  O         8.2099229484       14.2104597572        9.3225250196
  O        10.7354455678       14.5067446860       10.6642789850
  O        12.5719273924       14.5830113997        9.3283438591
  O        22.8452176288        2.0456307702        5.4867116516
  O        21.6049247898        3.5923612086        6.5905717888
  O        42.0579692394       34.1372185705        7.9788900663
  O        37.9814087887       33.1369120792        5.5722167217
  O        39.2166925436       31.5749125516        6.6651297111
  O        20.3084682281        1.0396840400        6.5020986200
  O        38.0248090272       33.1859768524       10.4153231732
  O        39.2181913202       31.5829454431        9.3276484960
  O        40.6521989833       33.7692306213       10.0600449405
  O        18.2556819883        1.3758686042        7.9968053575
  O        44.6221575636       35.1006164186        6.7587109346
  O        24.2053551206        0.0000707096        9.3207816285
  O        22.7531768501        2.0585766618       10.5844640945
  O        21.6247964034        3.5965853161        9.3434920134
  O        27.6365367567       18.6907433296        5.4140161222
  O        26.7419009672       17.0040618027        6.6593370267
  O        30.6657937133       19.4070009664        8.0786140399
  O        33.5465493905       16.3359688475        5.6615906973
  O        34.2671165632       18.1918644535        6.7444032372
  O        29.5774297976       17.0661514262        6.5838222762
  O        33.5563796069       16.3410414309       10.4158926497
  O        34.3026270116       18.2408839786        9.4115855598
  O        31.6491386801       18.3211833330       10.1674295079
  O        30.3252534076       15.1592720553        8.0926721303
  O        28.5524361405       21.0320670669        6.9140012724
  O        28.5163526701       20.9553459331        9.4115634700
  O        27.4547593150       18.6798192709       10.6603150503
  O        26.6930490545       16.9310391899        9.4149108593
  O        13.1479618738       18.6932141494       10.5874279644
  O        13.9201619164       16.9166606950        9.4060226123
  O        50.5960292717       19.3499827166        8.0198569265
  O        47.6831803503       16.3269257129       10.4173260271
  O        46.9499519724       18.1753996307        9.3260142560
  O        11.0703771190       17.0151207232        9.4893154508
  O        47.6745497400       16.3359397502        5.6527174847
  O        46.9249628697       18.2359054483        6.6632380415
  O        49.5689483745       18.3176286715        5.9823015412
  O        10.3187874645       15.1003093120        7.9970743368
  O        52.6707361653       21.0278115311        9.2417956077
  O        12.1468312830       20.8911275059        6.6732622581
  O        13.1101566182       18.6141006182        5.3253183710
  O        13.9608548696       16.9887853789        6.6625724589
  O        29.9912663211       14.4430250046       10.7323810701
  O        28.0893327753       14.6563624986        9.4930198030
  O        32.0992397193       16.9070113438        8.0842897666
  O        30.9636623420       20.9514559681       10.4115776310
  O        32.9452579594       20.6049064283        9.3441865111
  O        29.5644447698       17.0828923751        9.5789769577
  O        30.8702252982       20.8029705176        5.5727849076
  O        32.8606737980       20.5807142270        6.6602659616
  O        31.5901598404       18.2354101201        5.8303459393
  O        28.2887611502       18.6817148906        8.0874263240
  O        32.4915225320       14.2146662958        9.4006039024
  O        32.4021766197       14.2138021609        6.8379242731
  O        29.8620806041       14.4951730083        5.4919851046
  O        27.9929416374       14.6500584425        6.7532789141
  O        17.8892371372        1.9665876710       10.6628145446
  O        18.9562509909        3.5270956535        9.4080115173
  O        39.1685965644       34.1386208619        7.9970621895
  O        43.2801566984       33.0589279661       10.3316728102
  O        42.0343454396       31.5064875639        9.2415798516
  O        20.3176799878        1.0366974778        9.4803210549
  O        43.2760343953       33.1825949183        5.5749060589
  O        42.0052045723       31.5841396421        6.5830001413
  O        40.5792028480       33.7752579467        5.9360214721
  O        22.3673285882        1.3846811793        7.9979654899
  O        36.6727460549       35.0997388934        9.2332519320
  O        16.4456646500        0.0641962147        6.6682464964
  O        17.9364914730        2.0433913983        5.3263556463
  O        18.9190448391        3.5931062786        6.6659802950
  O        29.7761488779       18.9067074319       12.0705107120
  O        31.4406585195       15.7567157606        4.0885620276
  O        31.2635336855       16.4903418913       12.0797584772
  O        31.8492857790       17.2204796883        2.0854501871
  O        30.6601266059       16.1918950201       14.7273979231
  O        28.6931191469       18.3140563838       14.4216184589
  O        39.4568039906       35.2437988119        4.0019555180
  O        19.1410466056        0.0043925253       11.9905668866
  O        41.9696892400       35.1728481232        4.0873334580
  O        21.6912422631       -0.0693700913       11.8957238297
  O        51.3654027981       18.6142222521        4.0054602849
  O        10.7509796945       18.7471492717       11.9048269653
  O        50.0795871026       16.4128082875        4.0918180757
  O         9.5244741267       16.4831216210       11.9912024095
 Zr         9.2969743346       16.0528748471        6.1824991133
 Zr        49.8369017916       16.0067322654        9.7464019426
 Zr        22.0732083945        0.0300580421        6.1890475608
 Zr        42.4608286345       35.1533357630        9.8008619610
 Zr        29.6207207046       19.1074676239        6.3885324217
 Zr        29.5661572667       19.1665551073        9.9517112960
 Zr        11.0380610308       19.0516471101        9.8274628938
 Zr        11.0447023467       19.1544326949        6.2506020666
 Zr        31.3199169424       16.1194399891        9.9517461268
 Zr        31.4065396204       15.9955997098        6.3286118752
 Zr        18.6008966702       -0.0017118139        9.7633896646
 Zr        18.5065430927       -0.0078624715        6.2135418119
 Zr        12.3038210381       16.3239949204        7.9893666846
 Zr        48.6160671984       18.8328468394        8.0101145024
 Zr        20.3151088300        2.4734292315        7.9909252314
 Zr        40.6428402290       32.6865812842        7.9779283546
 Zr        28.3318840947       16.3531454410        8.0885480504
 Zr        32.6482337974       18.8462971760        8.0859809910
  H        28.9157005687       19.0171838105        1.8289414986
  H        31.7166494135       16.3577649959        3.2956935605
