     574
 i =      158, E =     -4778.8295292037
  C        11.8589404774       14.0535382984        5.7414162604
  C        12.4565387826       12.8907804044        5.0229158997
  C        11.7048989000       12.1719478413        4.0811280953
  C        12.2813054727       11.1098217734        3.3886771340
  C        13.6218728801       10.7399542546        3.6164172548
  C        14.3550329278       11.4435353821        4.5898972110
  C        13.7821210728       12.5084482503        5.2815060456
  C        14.2613029226        9.6491457868        2.8430939811
  C        14.2562738293        9.6566766757        1.4213741892
  C        13.7430965626       10.7586729228        0.6672903391
  C        49.1267483644       21.2333252038        5.8796643155
  C        48.5498642642       22.4012237610        5.1525290407
  C        49.2998611574       23.0685034691        4.1714966827
  C        48.7328858138       24.1075868504        3.4382463001
  C        47.4023534004       24.5091909121        3.6669104583
  C        46.6713974395       23.8602911734        4.6803941027
  C        47.2338858784       22.8154183746        5.4097681090
  C        46.7720927043       25.5869054806        2.8696782795
  C        46.7609308330       25.5573068682        1.4479208588
  C        47.2607690750       24.4422012762        0.7043808143
  C        14.8599351950        8.5700933569        0.7082248415
  C        14.8921770479        8.5973110046        3.5198643072
  C        49.1131319344       21.2034400163       10.1452810728
  C        48.5276522446       22.3648886212       10.8724572798
  C        49.2667793992       23.0255904720       11.8654422236
  C        48.6904114609       24.0601830044       12.5968586177
  C        47.3600327826       24.4570123937       12.3585341545
  C        46.6397499399       23.8121714793       11.3348775048
  C        47.2133557324       22.7762414778       10.6031354474
  C        46.7215197478       25.5319868840       13.1495652610
  C        46.7331121944       25.5282358937       14.5712833303
  C        47.2484800370       24.4289534418       15.3276195187
  C        40.6326082946       17.1420019006       15.3053658875
  C        40.6461506829       17.1975660982       12.4965295488
  C        11.8829872479       14.0863343936       10.2854504670
  C        12.4720276142       12.9102275269       10.9894539745
  C        11.7142680675       12.1769606744       11.9153373666
  C        12.2805474154       11.0942015146       12.5835451504
  C        13.6193060749       10.7201768569       12.3517821878
  C        14.3574986472       11.4357841116       11.3911680393
  C        13.7923910151       12.5172758974       10.7186771166
  C        14.2526491344        9.6232258570       13.1222341152
  C        14.2517038739        9.6435486214       14.5440918719
  C        13.7422181236       10.7527735917       15.2910223623
  C        22.5099828577        3.2460414872        5.7513555893
  C        23.2177981831        4.3545958270        5.0497434435
  C        24.2157392471        4.0818236410        4.1024204611
  C        24.8353645160        5.1260866790        3.4204751972
  C        24.4727710580        6.4658850101        3.6647192741
  C        23.5025521431        6.7300789801        4.6486625131
  C        22.8787796597        5.6878637533        5.3294252852
  C        25.0730457786        7.5765880388        2.8903521637
  C        25.0555209736        7.5663648748        1.4685216122
  C        24.3605881904        6.5634916190        0.7203434515
  C        38.2989929878       31.9268206461        5.8491626328
  C        37.5601249379       30.8381508385        5.1424793712
  C        36.5954726554       31.1464232144        4.1704789104
  C        35.9655274705       30.1302096881        3.4563907294
  C        36.2837832270       28.7777931996        3.6904142596
  C        37.2193644296       28.4768753168        4.6986822079
  C        37.8533224222       29.4922061798        5.4121708779
  C        35.6699532927       27.6903994199        2.8913170830
  C        35.7068920364       27.7048777021        1.4690454586
  C        36.4199040286       28.7041991984        0.7342940271
  C        25.6807195183        8.6360614588        0.7498191348
  C        25.6577975917        8.6578483660        3.5625956957
  C        38.3289201433       31.9613412935       10.1587666596
  C        37.6065910788       30.8882078810       10.9028228945
  C        36.6733444704       31.1980579280       11.9042029819
  C        36.0593192204       30.1810179845       12.6332034940
  C        36.3634070280       28.8272724296       12.3852505893
  C        37.2761221234       28.5273176888       11.3551757949
  C        37.8921231860       29.5409884756       10.6273598604
  C        35.7476411623       27.7293461418       13.1672272174
  C        35.7468905095       27.7246937286       14.5898483389
  C        36.4378214858       28.7143310793       15.3574234597
  C        46.1351410037       26.6208693614       15.2814772898
  C        46.0875820431       26.5804155809       12.4735820741
  C        22.4624909615        3.2572152900       10.2581704890
  C        23.1581349576        4.3668894944       10.9797664150
  C        24.1614373476        4.0829788440       11.9202415703
  C        24.7904653699        5.1143234330       12.6141873724
  C        24.4372885564        6.4605320799       12.3911638016
  C        23.4574493210        6.7376167594       11.4187760423
  C        22.8236601428        5.7066006619       10.7254128862
  C        25.0670284403        7.5602586789       13.1659356911
  C        25.0530841781        7.5571789445       14.5888567134
  C        24.3567596410        6.5608751624       15.3434944246
  C        26.6183091253       17.8610562576        5.7501332870
  C        25.3129389623       17.9252409501        5.0314797944
  C        25.0597221145       18.9143267189        4.0684781272
  C        23.8418612967       18.9412298544        3.3920450229
  C        22.8435112739       17.9812636349        3.6549836252
  C        23.0924671599       17.0176168836        4.6506309024
  C        24.3100335160       16.9866887198        5.3265495862
  C        21.5708489757       17.9644793754        2.8921850568
  C        21.5732578618       17.9346408268        1.4699221111
  C        22.7793668406       17.7986740893        0.7122850849
  C        34.4419986980       17.1834893492        5.8841787956
  C        35.7374751849       17.1183418332        5.1498552375
  C        35.9314990413       16.1601103133        4.1430956797
  C        37.1148426312       16.1444582763        3.4096841287
  C        38.1330964860       17.0835920987        3.6660177789
  C        37.9417083173       18.0181176304        4.7010607344
  C        36.7559370212       18.0412401833        5.4300339149
  C        39.3862880360       17.0988860863        2.8799907404
  C        39.3796902822       17.1354511332        1.4591853123
  C        38.1722201573       17.2769893743        0.7053403806
  C        20.3272271260       17.9529664392        0.7607996547
  C        20.3460083422       17.9674020143        3.5742341836
  C        34.4795747127       17.2527531413       10.1467315115
  C        35.7750002119       17.2017954871       10.8825129929
  C        35.9810338313       16.2324846011       11.8757004026
  C        37.1642937694       16.2190458809       12.6071888943
  C        38.1690217246       17.1764876961       12.3679662925
  C        37.9669973386       18.1245140148       11.3474605041
  C        36.7819985546       18.1414083105       10.6162253370
  C        39.4160473745       17.1891795897       13.1627476040
  C        39.3948790564       17.1842348048       14.5838896777
  C        38.1791381885       17.3007501431       15.3289178866
  C        35.1079488189       26.6484487915       15.2910647705
  C        35.1596099074       26.6584109266       12.4815824855
  C        26.5761191936       17.8314186705       10.3268821445
  C        25.2613458579       17.8750954526       11.0331712302
  C        24.9981469022       18.8794296298       11.9768237789
  C        23.7795263146       18.9064453003       12.6491201492
  C        22.7947878765       17.9293228976       12.4008692529
  C        23.0528817077       16.9493138350       11.4254711934
  C        24.2725142583       16.9198465723       10.7519061106
  C        21.5296911925       17.9137603905       13.1713450261
  C        21.5514121478       17.9072241197       14.5928211168
  C        22.7683151676       17.7856530533       15.3359840797
  C        14.0470263871       17.8302109445       10.2872185872
  C        15.3523905226       17.8909805567       11.0093982737
  C        15.6095834417       18.8986149002       11.9521229323
  C        16.8192962895       18.9228954542       12.6433104445
  C        17.8055173106       17.9422282925       12.4140113217
  C        17.5533774971       16.9592686882       11.4383742056
  C        16.3431960129       16.9305154468       10.7485575469
  C        19.0737178296       17.9267176321       13.1837340345
  C        19.0701484529       17.9284417278       14.6061750311
  C        17.8621147002       17.8341835437       15.3664603031
  C        46.8058909521       17.2190675116       10.1564671193
  C        45.5145898774       17.1613297443       10.8977441069
  C        45.2976528875       16.1789757608       11.8757847756
  C        44.1144708486       16.1691071892       12.6090779440
  C        43.1212992204       17.1424551705       12.3858644305
  C        43.3346897448       18.1035401330       11.3798539749
  C        44.5179081091       18.1166684840       10.6469901173
  C        41.8698369323       17.1643556458       13.1742598233
  C        41.8781656207       17.1528073350       14.5955719014
  C        43.0890137332       17.2335563682       15.3528165869
  C        20.3158449518       17.9389888497       15.3159606660
  C        20.2986396529       17.9033454043       12.5030511868
  C        46.7861722665       17.2309969663        5.8873608284
  C        45.4858114819       17.1221949935        5.1671635343
  C        45.2767322462       16.1260751410        4.2011521188
  C        44.0913763670       16.0942416134        3.4707578720
  C        43.0857315316       17.0553852893        3.6898958475
  C        43.2855608301       18.0214724341        4.6937409523
  C        44.4721667112       18.0599650677        5.4189983758
  C        41.8400262691       17.0746493425        2.8920561909
  C        41.8635120240       17.1043944784        1.4713294903
  C        43.0820273080       17.2101253244        0.7295483998
  C        46.1529616527       26.6372564564        0.7262437022
  C        46.1623422092       26.6560798862        3.5358874997
  C        14.0449418444       17.8330994142        5.7086320602
  C        15.3647905259       17.9122046602        5.0169137335
  C        15.6321431530       18.9302913880        4.0893090593
  C        16.8594579648       18.9739969920        3.4318677054
  C        17.8472123079       17.9988090071        3.6762258503
  C        17.5865527345       17.0095250364        4.6420046607
  C        16.3611798012       16.9652328307        5.3030233276
  C        19.1141254413       17.9802047545        2.9065265587
  C        19.0913906947       17.9551546358        1.4848718666
  C        17.8724363053       17.8459189166        0.7428399977
  C        28.8129210421       14.0891761568       10.3615478827
  C        28.2012905548       12.9213184276       11.0609715449
  C        28.9240372573       12.1871667948       12.0127759879
  C        28.3246507910       11.1164380555       12.6724134871
  C        26.9890520132       10.7543251362       12.4031739277
  C        26.2875873778       11.4703730599       11.4164797954
  C        26.8837627627       12.5422958541       10.7570766544
  C        26.3192449186        9.6746758636       13.1658224707
  C        26.2995727971        9.7036776359       14.5871182003
  C        26.8001777707       10.8175369786       15.3336332228
  C        32.1842427761       21.2411837797       10.1082023056
  C        32.7710435328       22.4029710561       10.8422078992
  C        32.0154336311       23.0788984913       11.8126977002
  C        32.5793365517       24.1185679319       12.5472712905
  C        33.9149961527       24.5115738094       12.3333698026
  C        34.6541754272       23.8518681274       11.3330445785
  C        34.0929260640       22.8068430005       10.6010715571
  C        34.5376573165       25.5897543788       13.1375206551
  C        34.5192674899       25.5647612820       14.5595477038
  C        34.0036119318       24.4517688345       15.2957509985
  C        25.6854029989        8.6270924481       15.3046712373
  C        25.6856621036        8.6220125284       12.4914859944
  C        32.0919965354       21.1725005705        5.8344351205
  C        32.6516839003       22.3442681856        5.0993536780
  C        31.9151758172       22.9982089126        4.0989828956
  C        32.4830137078       24.0481636799        3.3790956946
  C        33.8020402247       24.4734740249        3.6371292471
  C        34.5178725920       23.8343887749        4.6680485566
  C        33.9548725987       22.7829709550        5.3855228656
  C        34.4414263445       25.5616024627        2.8598804663
  C        34.4683481219       25.5510470665        1.4376033161
  C        33.9783179914       24.4461284022        0.6723292738
  C        40.6250695975       17.1168220125        0.7494071697
  C        40.6100437755       17.0869422659        3.5584224093
  C        28.7119137194       14.0928511836        5.8178365563
  C        28.0934864540       12.9492210369        5.0849530410
  C        28.8365831220       12.2269688663        4.1375579225
  C        28.2519010028       11.1754522340        3.4366630177
  C        26.9085148283       10.8136502997        3.6610029758
  C        26.1818035577       11.5206346259        4.6376465544
  C        26.7636860722       12.5765350476        5.3376673802
  C        26.2711561682        9.7203858046        2.8864795406
  C        26.2769669101        9.7271632456        1.4642080735
  C        26.7871687592       10.8303267590        0.7099063081
  C        18.1353409797        3.1795431921       10.3177173596
  C        17.4051585203        4.2764870110       11.0158267874
  C        16.3906038953        3.9978871459       11.9445628991
  C        15.7424615632        5.0378279122       12.6077466394
  C        16.0929761363        6.3817423025       12.3668829426
  C        17.0812570821        6.6513849728       11.4020173169
  C        17.7306282998        5.6141320734       10.7371086254
  C        15.4686877520        7.4895799330       13.1298046997
  C        15.4844570290        7.4893936031       14.5515396513
  C        16.1864313242        6.4961642728       15.3048364915
  C        42.9455531752       31.8597400031       10.0726082799
  C        43.6457284052       30.7722522399       10.8170516872
  C        44.5911547949       31.0935200153       11.8032419974
  C        45.1968735353       30.0879476806       12.5508855013
  C        44.8707036720       28.7348497812       12.3358090170
  C        43.9449994069       28.4205641683       11.3224514538
  C        43.3361565331       29.4257266569       10.5744753186
  C        45.4883278471       27.6554980610       13.1389163393
  C        45.4924692807       27.6810573289       14.5606143399
  C        44.8054495261       28.6890915223       15.3073243331
  C        14.8557535658        8.5621416554       15.2637752890
  C        14.8734009163        8.5613209801       12.4510881774
  C        42.9463830788       31.9617111273        5.8091466761
  C        43.6918472771       30.8855642243        5.0958130102
  C        44.6561238373       31.1914738417        4.1231997142
  C        45.2776076263       30.1718906973        3.4054236305
  C        44.9541807896       28.8215344687        3.6433251873
  C        44.0211222966       28.5238889477        4.6545196621
  C        43.3929086445       29.5406409297        5.3667713015
  C        45.5630170105       27.7241269613        2.8579291615
  C        45.5331212384       27.7174387198        1.4366249381
  C        44.8268042154       28.7077067468        0.6837188519
  C        35.0847280016       26.6403742433        0.7367548196
  C        35.0537796321       26.6180372517        3.5473913218
  C        18.1484232252        3.2468935206        5.7066901419
  C        17.4301116598        4.3438106993        4.9972790323
  C        16.4147580753        4.0526255591        4.0738211904
  C        15.7665224686        5.0832851386        3.3984077815
  C        16.1213643971        6.4285272463        3.6209150362
  C        17.1129394664        6.7118294049        4.5780022909
  C        17.7605394471        5.6828841651        5.2578181787
  C        15.4908078574        7.5241785044        2.8484002006
  C        15.4963398204        7.5071918356        1.4272581550
  C        16.1930417366        6.5053919744        0.6806454688
  H        10.6727622044       12.4660570443        3.9041229160
  H        11.6950060655       10.5513888823        2.6621104766
  H        15.3920979989       11.1690255562        4.7715749793
  H        14.3516455246       13.0716586499        6.0169076075
  H        13.3764203864       11.6310380251        1.2004391410
  H        50.3225835584       22.7484810020        3.9867978316
  H        49.3193556180       24.6228724666        2.6806692545
  H        45.6419026745       24.1610523309        4.8635614912
  H        46.6629209609       22.2900932457        6.1718408238
  H        47.6292937725       23.5757980897        1.2460383905
  H        14.8727886394        8.5888514054        4.6081787808
  H        50.2867911935       22.7026815843       12.0604537285
  H        49.2687709983       24.5755802713       13.3604287068
  H        45.6103862196       24.1094673807       11.1456787291
  H        46.6526377897       22.2541537210        9.8314431433
  H        47.6072409166       23.5518552071       14.7966731514
  H        40.6508292914       17.1722662995       11.4085506129
  H        48.6871561019       14.0948972769        7.8000726912
  H        10.6808513545       12.4662231625       12.0927451835
  H        11.6885676800       10.5238275639       13.2961029478
  H        15.3929303047       11.1578221115       11.2053349510
  H        14.3650269059       13.0867120550        9.9904271319
  H        13.3754744839       11.6213419411       14.7522534180
  H        47.9302176407       14.2184516593        9.7108558083
  H        47.7801055876       14.3737552542        6.4953891764
  H        49.0844654813       18.5524139560       10.8674109608
  H        10.4159633199       14.1342210370        7.9986547066
  H        24.4840198288        3.0452183988        3.9107922198
  H        25.6098704724        4.9138527629        2.6866382615
  H        23.2143336491        7.7608873586        4.8440926982
  H        22.1078748550        5.8831467749        6.0708030260
  H        23.7977396497        5.8067262349        1.2589422480
  H        36.3633516409       32.1909301795        3.9762112051
  H        35.2182625835       30.3761666788        2.7050518124
  H        37.4751068900       27.4364091016        4.8883859435
  H        38.6001943405       29.2645121790        6.1691997460
  H        36.9840538690       29.4530340852        1.2825767020
  H        25.6836444537        8.6448268639        4.6507452057
  H        36.4488625696       32.2425348760       12.1085094548
  H        35.3296675170       30.4286034247       13.4010501777
  H        37.5245383340       27.4868450298       11.1564094157
  H        38.6181040028       29.3128156923        9.8507251249
  H        37.0167213123       29.4707508297       14.8352405716
  H        46.1091013201       26.5879059878       11.3855477470
  H        44.6706459502       35.1164935540        7.8102881491
  H        24.4396557060        3.0451763304       12.0894070775
  H        25.5714191451        4.8856638694       13.3363052352
  H        23.1723687012        7.7717621434       11.2362467075
  H        22.0515581812        5.9194615933        9.9896181004
  H        23.7903721360        5.8026089388       14.8106188848
  H        44.9546100850       34.3899228993        9.6948820902
  H        44.9004043557       34.2060147585        6.4886099902
  H        40.6656196688       33.2096468535       10.8521227070
  H        23.1515864919        1.9585425437        8.0040395611
  H        25.8249935463       19.6598409659        3.8650726040
  H        23.6495698841       19.7135642876        2.6504994081
  H        22.3327688589       16.2680804168        4.8626465683
  H        24.5137090765       16.2290682385        6.0795490969
  H        23.7194882939       17.6703457868        1.2411737273
  H        35.1369915388       15.4439785428        3.9441963272
  H        37.2665029725       15.3965116694        2.6344095754
  H        38.7215173921       18.7495892261        4.9027105648
  H        36.5889400791       18.7786878458        6.2116382439
  H        37.2353058224       17.3987300441        1.2411278324
  H        20.3519188487       18.0108062218        4.6619722517
  H        35.1948036901       15.5066025860       12.0685437303
  H        37.3252650168       15.4611522727       13.3706561720
  H        38.7362211295       18.8707131928       11.1594800473
  H        36.6056597513       18.8886022750        9.8460442797
  H        37.2474431904       17.4407171301       14.7882210227
  H        35.1404822828       26.6829392008       11.3936449191
  H        28.5106491161       21.0881131658        7.9768349021
  H        25.7619359661       19.6307780958       12.1644226741
  H        23.5750650327       19.6890762259       13.3765262949
  H        22.3012903091       16.1874546767       11.2289221322
  H        24.4878694753       16.1511049137       10.0136748648
  H        23.6996155735       17.6487104186       14.7944759547
  H        29.0145724377       21.7150782613        9.7523362205
  H        29.1105735952       21.7702987804        6.5994243197
  H        32.1209777855       18.5518604142       10.9209155625
  H        27.4026358661       19.0841032857        8.0789668459
  H        14.8508624119       19.6579192585       12.1278961309
  H        17.0153830059       19.7101480921       13.3680842837
  H        18.3047479127       16.1944920553       11.2526014230
  H        16.1365264802       16.1583098402       10.0113663474
  H        16.9198992738       17.7191744943       14.8385546175
  H        46.0731478215       15.4379272116       12.0547627870
  H        43.9446727099       15.4008154505       13.3601672169
  H        42.5746309235       18.8620178123       11.2044093829
  H        44.7017055219       18.8724282977        9.8870689071
  H        44.0302872995       17.3471813471       14.8226619991
  H        20.2939986164       17.9305248899       11.4148424749
  H        46.0587954166       15.3911488413        4.0247421582
  H        43.9319469190       15.3211237949        2.7222423270
  H        42.5135212820       18.7677982855        4.8689111501
  H        44.6476752009       18.8248194586        6.1715378367
  H        44.0178814047       17.3053909415        1.2725348449
  H        46.1994092913       26.6826149011        4.6233258350
  H        52.7411146680       21.0626013789        8.1946484785
  H        14.8681073097       19.6811758711        3.9005420575
  H        17.0658130209       19.7666366461        2.7158710459
  H        18.3407634304       16.2501858200        4.8381601585
  H        16.1448899795       16.1885647241        6.0325914769
  H        16.9380623979       17.7397639306        1.2857536307
  H        52.3222324248       21.6733414906        6.2945250722
  H        52.0129622689       21.7018818058        9.4955545008
  H        49.0678546235       18.6076032522        5.2036776201
  H        13.2475136201       19.0164208064        7.9771922987
  H        29.9527406528       12.4712252341       12.2232378535
  H        28.8872976210       10.5472439334       13.4092533473
  H        25.2551850068       11.2023977459       11.2014617667
  H        26.3385483909       13.1161718291       10.0118361640
  H        27.1686200936       11.6847959963       14.7938968852
  H        30.9891206980       22.7649840304       11.9872642765
  H        31.9863412219       24.6410467609       13.2947771061
  H        35.6884313935       24.1434381918       11.1618493916
  H        34.6705916643       22.2733762807        9.8496739313
  H        33.6516689505       23.5820343707       14.7481808444
  H        25.7198899445        8.6018496494       11.4035962798
  H        30.8998657123       22.6672980390        3.8916520162
  H        31.9034917416       24.5554483419        2.6108063566
  H        35.5382240728       24.1499078765        4.8758566874
  H        34.5158057752       22.2700625123        6.1631323168
  H        33.6073870525       23.5709738443        1.1977557387
  H        40.6041904368       17.0352904508        4.6455063245
  H        32.5224215161       14.1391314049        8.2388032954
  H        29.8765113253       12.4975037850        3.9700282492
  H        28.8358979394       10.6148265535        2.7099706030
  H        25.1424988400       11.2540384084        4.8185388400
  H        26.1975437521       13.1378120142        6.0773786495
  H        27.1435945309       11.7081543214        1.2413346151
  H        33.2970790912       14.1920223553        6.4367183899
  H        33.4150012838       14.3868824524        9.6021409357
  H        32.1505656677       18.5024770793        5.0984394724
  H        30.2270112165       14.1904649103        8.0783647562
  H        16.1200508575        2.9612215347       12.1322466672
  H        14.9538554202        4.8182431464       13.3242707574
  H        17.3628010974        7.6843343058       11.2080016649
  H        18.5118645244        5.8170535231       10.0084892758
  H        16.7530952413        5.7388463021       14.7714272386
  H        44.8274654824       32.1405723679       11.9775471389
  H        45.9366969708       30.3417191403       13.3068660722
  H        43.6825851765       27.3784681300       11.1520642648
  H        42.5997830555       29.1903928595        9.8095773246
  H        44.2301369783       29.4369378790       14.7690903547
  H        14.8494259898        8.5443166320       11.3628755219
  H        44.8994248924       32.2341640097        3.9314906986
  H        46.0243088245       30.4131708099        2.6519988984
  H        43.7645792883       27.4841241088        4.8464580859
  H        42.6467765560       29.3178373113        6.1255769957
  H        44.2684126281       29.4706513898        1.2183411671
  H        35.0070352400       26.6299377388        4.6347765618
  H        36.6078790196       35.1343480838        8.1848204368
  H        16.1434677916        3.0130762562        3.9042709070
  H        14.9740700342        4.8564840067        2.6884525228
  H        17.3966895885        7.7472604395        4.7547275934
  H        18.5435429277        5.8934082223        5.9824227627
  H        16.7648548934        5.7554714073        1.2191234083
  H        36.2781753188       34.4832782464        6.2732532423
  H        36.3854558734       34.2074203465        9.5000215146
  H        40.5785248538       33.2022784666        5.1536153911
  H        17.4754543914        1.9453092463        7.9767859208
  H        29.3292734129       19.5041389721       12.5034936784
  H        30.0162568266       19.3219602471        3.0894560057
  H        30.8860349405       15.3183061345        3.7442621289
  H        31.2584763875       15.5787071189       12.4119837248
  H        28.2539635986       18.0130630636       14.5263380538
  H        29.4588404148       15.6241804728       14.5139446017
  H        31.6868037067       19.5539748222        1.4406717603
  H        33.1658324722       16.7942185880        1.2904584024
  H        29.0832309907       17.0259224716        0.8438643675
  H        32.8524132453       18.4463558751       15.1601820819
  H        18.9045997406        0.8522247265       12.3618763971
  H        40.5247881972       35.2295032103        3.9513409859
  H        42.3252530500       34.4198286499        3.5891424522
  H        22.0969367399        0.6993319831       12.3435479489
  H        11.5967975048       18.7130688525       12.3826248995
  H        52.2648272046       18.4311784975        3.6773189174
  H        49.2552732225       16.4768736952        3.5844503838
  H        10.1507486371       15.7981444192       12.2926504449
  H        50.8500008598       17.6923661661        3.9541412872
  H        10.0464477073       17.3945312365       12.0519652811
  H        20.2923842331        0.0045950961       12.0340415261
  H        39.1820235339       36.1254125970        3.6892834667
 Ni        31.2868501480       17.4684479114        2.7427695013
 Ni        31.3677889660       16.5028053499       -0.4084629879
 Ni        30.1447248859       18.6216691179       -0.1614886006
 Ni        30.0568976499       17.4019454268       12.9930444126
  O        10.6500724852       14.3650800461        5.4858267771
  O        12.6132391330       14.6575069720        6.5838908028
  O        49.1480896354       16.8459055043        7.9897259521
  O        50.3501572025       20.9361826132        5.6480974810
  O        48.3484957004       20.5933616576        6.6658629940
  O        11.0516809008       17.0537979125        6.5007632677
  O        50.3208860967       20.8817765098       10.4068762034
  O        48.3466961221       20.5867622290        9.3270851322
  O        49.5442661698       18.2484239301       10.0681840254
  O        12.3590833656       18.6245748363        7.9996577236
  O        48.6932807032       14.1484960788        6.7513499498
  O         8.2099154106       14.2104025612        9.3225509040
  O        10.7353945508       14.5067113781       10.6643317692
  O        12.5718216922       14.5827634355        9.3285276413
  O        22.8448348453        2.0448699635        5.4866204032
  O        21.6050496209        3.5921858585        6.5903643585
  O        42.0592761620       34.1370151824        7.9768357922
  O        37.9813208532       33.1356214728        5.5721098792
  O        39.2165472162       31.5741312469        6.6651620359
  O        20.3091572244        1.0398681683        6.5018743009
  O        38.0252166654       33.1854094312       10.4166940705
  O        39.2182239482       31.5830131778        9.3275667733
  O        40.6543601974       33.7682295778       10.0579658543
  O        18.2597322838        1.3734121830        7.9983241638
  O        44.6227168168       35.1003730249        6.7567805039
  O        24.2068339338       -0.0000981422        9.3203351131
  O        22.7535205877        2.0583410122       10.5841365436
  O        21.6251744083        3.5966255147        9.3437124845
  O        27.5446469752       18.6903927116        5.4102440455
  O        26.7301108349       16.9901512455        6.6686638286
  O        30.6718730698       19.4052790843        8.0035267462
  O        33.5875555302       16.2659919708        5.6606002056
  O        34.2726459942       18.1836682914        6.6656894407
  O        29.5748602938       17.0688457241        6.5731520462
  O        33.6242453225       16.3381828009       10.3991330734
  O        34.3156083573       18.2311657351        9.3339012990
  O        31.7130691712       18.3139007156       10.0702951750
  O        30.3216738905       15.1570137331        8.0712851285
  O        28.5540503340       21.0307355243        6.8993731776
  O        28.5128787835       20.9574097450        9.4053849367
  O        27.4626780364       18.6809600036       10.6568282570
  O        26.6948956217       16.9310852515        9.4126334409
  O        13.1483897381       18.6931652314       10.5870303371
  O        13.9193191884       16.9162349323        9.4048818502
  O        50.5962823092       19.3502984581        8.0204188247
  O        47.6830695812       16.3271568902       10.4170682969
  O        46.9531745336       18.1764882056        9.3231263543
  O        11.0699676776       17.0153350346        9.4895939001
  O        47.6771214080       16.3353906842        5.6533264933
  O        46.9256988517       18.2354994203        6.6633692376
  O        49.5687027335       18.3177640870        5.9821542260
  O        10.3187612099       15.1000914342        7.9971003225
  O        52.6707406983       21.0279114085        9.2418228166
  O        12.1468106213       20.8912746128        6.6732877361
  O        13.1066870650       18.6141492219        5.3257755544
  O        13.9571537481       16.9875028383        6.6645719158
  O        30.0030191508       14.4346240537       10.6606554168
  O        28.0791576313       14.6594590383        9.4804752430
  O        32.1421676966       16.8621761945        8.0122511596
  O        30.9615926704       20.9592550708       10.3307508992
  O        32.9601332279       20.5942859116        9.3227999697
  O        29.5700459753       17.0805433842        9.5639107720
  O        30.8819939137       20.8172648137        5.5723567332
  O        32.8691755584       20.5892130808        6.6579182883
  O        31.6705654052       18.2428800941        5.9055715013
  O        28.2864782449       18.6814496522        8.0646559298
  O        32.4975871568       14.2112533324        9.3222338046
  O        32.4062279954       14.2089526063        6.8249350028
  O        29.9012269791       14.4345611664        5.4930053676
  O        28.0075530752       14.6464337003        6.7357192214
  O        17.8898354283        1.9651910725       10.6634424065
  O        18.9561551041        3.5265152970        9.4084144867
  O        39.1692275869       34.1389704040        7.9994298348
  O        43.2803826306       33.0593717711       10.3313445126
  O        42.0343792253       31.5066653748        9.2414482302
  O        20.3215164547        1.0373473963        9.4791147101
  O        43.2760436969       33.1826676349        5.5748042934
  O        42.0050760264       31.5842239647        6.5829546623
  O        40.5786350026       33.7748189117        5.9358333081
  O        22.3686151339        1.3850530274        7.9973029932
  O        36.6742711413       35.0996321922        9.2358371531
  O        16.4461186406        0.0645801243        6.6680613968
  O        17.9365349202        2.0432818834        5.3266228267
  O        18.9188908877        3.5930970226        6.6661369103
  O        29.6145142096       18.9059347414        3.9119557633
  O        29.9070289455       18.9775963166       11.9173585327
  O        31.3084032158       16.1275227167        4.0831901584
  O        31.3036466821       16.4151874687       11.9063913132
  O        32.2227719059       16.5578608902        1.2601316915
  O        28.4223585889       16.5566473569        1.4190883404
  O        30.3238375807       15.8979085189       14.1543480004
  O        31.9799667351       18.1694028570       14.8237851565
  O        30.8696811529       19.0474229529        1.5950101211
  O        29.0930967625       18.4577199260       14.3080203791
  O        39.4555495737       35.2439021908        4.0021646849
  O        19.2010335093        0.0038092786       11.9878364124
  O        41.9699041281       35.1725947421        4.0867447365
  O        21.7010727925       -0.0685596924       11.8979283314
  O        51.3649624184       18.6142964253        4.0053354186
  O        10.7510550876       18.7472336895       11.9049547571
  O        50.0797177995       16.4128027182        4.0916881889
  O         9.5248657244       16.4830049809       11.9911684857
 Zr         9.2973011506       16.0525353474        6.1825043665
 Zr        49.8368896107       16.0066215297        9.7463981104
 Zr        22.0727595284        0.0313298859        6.1860671207
 Zr        42.4639364571       35.1526912228        9.7916892259
 Zr        29.6135088772       19.0904846342        6.3029104629
 Zr        29.5981838510       19.1760730657        9.8310036685
 Zr        11.0384100338       19.0517305218        9.8277444036
 Zr        11.0441812399       19.1546837088        6.2509067453
 Zr        31.3696352900       16.1004338012        9.8155168139
 Zr        31.3933181976       15.9945753678        6.2525363616
 Zr        18.6074973965        0.0005572580        9.7754180026
 Zr        18.5064346449       -0.0084155995        6.2169545118
 Zr        12.3026273415       16.3234767540        7.9902326706
 Zr        48.6170553975       18.8330749157        8.0096850726
 Zr        20.3151965496        2.4747373190        7.9905399592
 Zr        40.6412732691       32.6876302534        7.9776107812
 Zr        28.3358186356       16.3504065877        8.0909759847
 Zr        32.6593737078       18.8289827046        8.0169199707
  H        28.7198541779       18.5900404841        3.6697253866
  H        28.9780930813       16.2701028113        2.1691359154
