     569
 i =       45, E =     -4729.4568584849
  C        11.8584784307       14.0537469608        5.7416695368
  C        12.4560198981       12.8905442692        5.0232186770
  C        11.7044847213       12.1721060028        4.0811314297
  C        12.2807461842       11.1098204388        3.3887356110
  C        13.6210584678       10.7394828304        3.6169682619
  C        14.3540586953       11.4425615037        4.5908988898
  C        13.7812539855       12.5076142157        5.2823908372
  C        14.2606293471        9.6488068003        2.8436131438
  C        14.2563770937        9.6568391820        1.4218980173
  C        13.7434915834       10.7590811900        0.6679619469
  C        49.1264459693       21.2332753671        5.8798554759
  C        48.5495272726       22.4011010518        5.1525802869
  C        49.2996716637       23.0686296005        4.1718365502
  C        48.7327065747       24.1076950404        3.4385712846
  C        47.4020516122       24.5090583841        3.6669549026
  C        46.6708839806       23.8598216644        4.6800548891
  C        47.2333777336       22.8149538184        5.4094549590
  C        46.7719433268       25.5868349118        2.8696818032
  C        46.7611665119       25.5573749971        1.4479147424
  C        47.2609843549       24.4422056456        0.7044512511
  C        14.8602726123        8.5704277352        0.7086891280
  C        14.8910151389        8.5966295326        3.5202706155
  C        49.1129768733       21.2034051818       10.1452886181
  C        48.5275447468       22.3647337110       10.8725665609
  C        49.2669565080       23.0257624694       11.8651151389
  C        48.6906246008       24.0602988425       12.5965922755
  C        47.3600670098       24.4567325900       12.3586543833
  C        46.6393624192       23.8113562322       11.3356653455
  C        47.2129103294       22.7754068152       10.6039149791
  C        46.7217507942       25.5318096915       13.1496357775
  C        46.7335645946       25.5282699868       14.5713314971
  C        47.2487938350       24.4289389988       15.3276889683
  C        40.6189337368       17.0874514155       15.3064409448
  C        40.6277167030       17.1043995171       12.4952161333
  C        11.8826791788       14.0865391563       10.2853564733
  C        12.4719611385       12.9104115631       10.9896761818
  C        11.7144358556       12.1775217154       11.9159577186
  C        12.2808883545       11.0950007675       12.5844653925
  C        13.6195204001       10.7208742873       12.3523867364
  C        14.3574410818       11.4361156395       11.3913203543
  C        13.7921799432       12.5173894400       10.7186171300
  C        14.2531343783        9.6241225073       13.1228358989
  C        14.2524135326        9.6443417822       14.5446870537
  C        13.7428879907       10.7534918810       15.2917029075
  C        22.5106579929        3.2436254164        5.7547798853
  C        23.2241298459        4.3514482477        5.0571736779
  C        24.2262668487        4.0756659931        4.1156055088
  C        24.8508872184        5.1183170714        3.4359859596
  C        24.4880450102        6.4578132089        3.6787940941
  C        23.5138651068        6.7253983737        4.6573893362
  C        22.8850772669        5.6845698076        5.3353322043
  C        25.0881134528        7.5678012752        2.9045664207
  C        25.0591376460        7.5619462416        1.4830286003
  C        24.3616623021        6.5589566301        0.7382207758
  C        38.3006056067       31.9254628101        5.8496120814
  C        37.5694326849       30.8335055874        5.1458058673
  C        36.6092502416       31.1313640779        4.1659248613
  C        35.9927886158       30.1075724169        3.4519403571
  C        36.3189918510       28.7577258083        3.6937937789
  C        37.2477589535       28.4680583362        4.7121207554
  C        37.8688829304       29.4904702443        5.4250010326
  C        35.7201555863       27.6644458796        2.8955109187
  C        35.7411029255       27.6892027654        1.4702353286
  C        36.4419722969       28.6933184225        0.7356016960
  C        25.6758087937        8.6355243029        0.7635686985
  C        25.6804263415        8.6440637087        3.5758353097
  C        38.3272269884       31.9607541714       10.1569489585
  C        37.6043039585       30.8896440869       10.8973551102
  C        36.6837082284       31.1986934714       11.9113566377
  C        36.0736733852       30.1811909292       12.6417149569
  C        36.3665059372       28.8263858493       12.3823691021
  C        37.2634828386       28.5282721754       11.3369601502
  C        37.8770044726       29.5421108253       10.6086760298
  C        35.7586850681       27.7275817994       13.1651846545
  C        35.7606950294       27.7215233040       14.5903829421
  C        36.4509394999       28.7091868393       15.3565323994
  C        46.1356902435       26.6209949301       15.2814311287
  C        46.0877324670       26.5800985951       12.4735557442
  C        22.4598399219        3.2561919487       10.2594266515
  C        23.1515722338        4.3661473113       10.9860143921
  C        24.1517113663        4.0814007850       11.9293402687
  C        24.7766668557        5.1119502760       12.6282808494
  C        24.4222059768        6.4577821009       12.4061533182
  C        23.4446294759        6.7358406873       11.4318386097
  C        22.8149414716        5.7054524652       10.7339092280
  C        25.0499474202        7.5581615451       13.1811871073
  C        25.0398548912        7.5563484685       14.6045538229
  C        24.3500032760        6.5575862114       15.3612230130
  C        26.5905075215       17.8734870338        5.7608480765
  C        25.2937878608       17.9493344012        5.0646397954
  C        25.0553417269       18.9109262467        4.0637779808
  C        23.8464409260       18.9279206360        3.3778566178
  C        22.8269741828       17.9939565589        3.6686436943
  C        23.0542707292       17.0714181004        4.7120001742
  C        24.2667477624       17.0411380812        5.3913227309
  C        21.5651123254       17.9645135524        2.9002210679
  C        21.5688037946       17.9448010742        1.4745239363
  C        22.7721307690       17.8085238706        0.7169192731
  C        34.4537730915       17.1962473988        5.9193181912
  C        35.7348273870       17.1500486944        5.1805367432
  C        35.9288934790       16.1998354441        4.1616423546
  C        37.1058210440       16.1913560034        3.4224574189
  C        38.1308737134       17.1254154986        3.6806947327
  C        37.9419263340       18.0494770484        4.7291547826
  C        36.7595970178       18.0700572220        5.4624627245
  C        39.3786624241       17.1368790861        2.8901888323
  C        39.3692310866       17.1316727671        1.4652708490
  C        38.1629455758       17.2556901582        0.7103958283
  C        20.3234155432       17.9617654188        0.7637726843
  C        20.3367062572       17.9496168949        3.5786174288
  C        34.4439734478       17.2344560265       10.1853257559
  C        35.7394129543       17.1363316931       10.9054517009
  C        35.9318719556       16.1751415022       11.9104472512
  C        37.1214033247       16.1450183441       12.6324227077
  C        38.1497067537       17.0734416786       12.3716406957
  C        37.9623940610       18.0049250754       11.3317173384
  C        36.7722424565       18.0420646005       10.6127985779
  C        39.3978934535       17.0906398124       13.1634443737
  C        39.3787728145       17.1092002115       14.5869216197
  C        38.1669808977       17.2432581619       15.3321067975
  C        35.1288238812       26.6404367932       15.2918595019
  C        35.1755146386       26.6541476016       12.4804949648
  C        26.5577454943       17.8416984931       10.3325712161
  C        25.2480558237       17.8980442790       11.0258808700
  C        25.0005059977       18.8849213185       11.9940055556
  C        23.7843148799       18.9121990667       12.6675175029
  C        22.7848446203       17.9537663199       12.3996769505
  C        23.0268731513       16.9963496312       11.3966613272
  C        24.2434168484       16.9649079523       10.7206802156
  C        21.5243259001       17.9329194597       13.1721602122
  C        21.5484461198       17.9260567245       14.5955028745
  C        22.7625900048       17.7998790963       15.3389137298
  C        14.0459198299       17.8310414513       10.2864874637
  C        15.3507149640       17.8941235676       11.0079859277
  C        15.6015555238       18.8964781688       11.9582644467
  C        16.8099053492       18.9221851691       12.6507948847
  C        17.8024804236       17.9493420492       12.4143473226
  C        17.5567587023       16.9725307003       11.4305040199
  C        16.3472228905       16.9415849671       10.7401484569
  C        19.0690923589       17.9359798804       13.1839558880
  C        19.0661424771       17.9368579085       14.6083003632
  C        17.8598524768       17.8342421913       15.3664800593
  C        46.8011765291       17.2145544472       10.1555050190
  C        45.5069243764       17.1411208824       10.8915838150
  C        45.3054962936       16.1638885210       11.8793350003
  C        44.1214184076       16.1362269525       12.6108550349
  C        43.1055366563       17.0845463186       12.3777202416
  C        43.3028878309       18.0380018803       11.3596296268
  C        44.4883798382       18.0705860980       10.6295334792
  C        41.8542564404       17.0920875779       13.1688537485
  C        41.8640872643       17.0960888650       14.5931285934
  C        43.0734969849       17.1961430877       15.3470239071
  C        20.3123924214       17.9526568310       15.3184783085
  C        20.2935081020       17.9150864393       12.5040528473
  C        46.7852644109       17.2329784120        5.8857992891
  C        45.4853477661       17.1317429399        5.1657552169
  C        45.2679075056       16.1384022821        4.1982386517
  C        44.0815954602       16.1157827519        3.4694556932
  C        43.0808826215       17.0830330924        3.6897026055
  C        43.2898536659       18.0466762213        4.6947839103
  C        44.4771560470       18.0759125733        5.4188444882
  C        41.8339606495       17.1063201489        2.8952868425
  C        41.8538655637       17.1015151851        1.4714994477
  C        43.0684336137       17.1955716341        0.7257408609
  C        46.1533733237       26.6373854972        0.7261752721
  C        46.1618866845       26.6558845221        3.5358008659
  C        14.0425983595       17.8316152290        5.7090902845
  C        15.3612215757       17.9072815761        5.0168846089
  C        15.6296947745       18.9238922373        4.0882398446
  C        16.8565040295       18.9637407796        3.4306580348
  C        17.8417769044       17.9866141375        3.6771182318
  C        17.5795761738       16.9983395898        4.6433353729
  C        16.3545791750       16.9577888556        5.3043328160
  C        19.1082193381       17.9668884529        2.9097859291
  C        19.0864357202       17.9528381351        1.4858262240
  C        17.8703100400       17.8411480070        0.7445931479
  C        28.8086706846       14.0794925603       10.4003877066
  C        28.1928087447       12.9129067305       11.0816368082
  C        28.9004440118       12.1981142338       12.0608358059
  C        28.2967717407       11.1282067080       12.7145299481
  C        26.9715139287       10.7489143769       12.4160594443
  C        26.2882201741       11.4433667323       11.4010856970
  C        26.8883206033       12.5140471331       10.7448847667
  C        26.2971144058        9.6745936007       13.1782401648
  C        26.2766059697        9.7082466996       14.5995972048
  C        26.7643958585       10.8284144543       15.3446638286
  C        32.1771256899       21.2388366698       10.1409710754
  C        32.7658175047       22.4028393807       10.8551904440
  C        32.0282244187       23.0624553369       11.8525492807
  C        32.5988295857       24.1017912396       12.5790231853
  C        33.9240536490       24.5146649900       12.3334157287
  C        34.6411421853       23.8754797478       11.3023724085
  C        34.0745618037       22.8298200244       10.5774001649
  C        34.5540582938       25.5855504331       13.1358812743
  C        34.5409796658       25.5557988224       14.5605903055
  C        34.0420835848       24.4373605480       15.2954115716
  C        25.6709807246        8.6284965133       15.3185753758
  C        25.6660572634        8.6197900793       12.5050578431
  C        32.0700490148       21.1997976914        5.8333413010
  C        32.6594971780       22.3402693045        5.0984478333
  C        31.9427273503       23.0033080142        4.0857673424
  C        32.5334472022       24.0361796637        3.3655309200
  C        33.8549230995       24.4507001097        3.6384910212
  C        34.5489286920       23.8076907005        4.6847362191
  C        33.9676015295       22.7642347671        5.3967089056
  C        34.5039861065       25.5293866177        2.8646967780
  C        34.5138636587       25.5286819716        1.4390665191
  C        34.0282130258       24.4250976651        0.6741186208
  C        40.6134381187       17.0947241572        0.7522014130
  C        40.6063321686       17.1461701511        3.5637982116
  C        28.7279446649       14.0713733148        5.8294956624
  C        28.1139482338       12.9248811534        5.1117986964
  C        28.8342712201       12.2585209544        4.1060675156
  C        28.2502543661       11.2095040300        3.4030105312
  C        26.9298188659       10.7967270179        3.6771493076
  C        26.2297671075       11.4479544903        4.7119176574
  C        26.8099031481       12.5000958343        5.4168974416
  C        26.2863998839        9.7116473550        2.8998295102
  C        26.2729568889        9.7271346950        1.4769348546
  C        26.7603733423       10.8389849971        0.7211513656
  C        18.1350812319        3.1804636178       10.3171079602
  C        17.4054093835        4.2777270686       11.0155377440
  C        16.3908810434        3.9991550663       11.9442782411
  C        15.7430132476        5.0390176944       12.6078385607
  C        16.0935492237        6.3829082029       12.3670632179
  C        17.0814872406        6.6525671110       11.4018292872
  C        17.7307197674        5.6153543189       10.7367260476
  C        15.4694191037        7.4906313436       13.1301637574
  C        15.4851917426        7.4901950389       14.5518787218
  C        16.1869450533        6.4967487531       15.3051000093
  C        42.9458491491       31.8593113999       10.0728579517
  C        43.6462074519       30.7718364543       10.8168285282
  C        44.5919866187       31.0931565777       11.8026837900
  C        45.1976716797       30.0876046221       12.5503099349
  C        44.8710319137       28.7345483204       12.3356391616
  C        43.9448669939       28.4202383857       11.3227348529
  C        43.3359895037       29.4253698195       10.5747514288
  C        45.4886760030       27.6553089502       13.1388211999
  C        45.4929829417       27.6811007676       14.5604972427
  C        44.8057748916       28.6890908504       15.3070847603
  C        14.8564340185        8.5628218871       15.2642414067
  C        14.8738694728        8.5622918891       12.4515944199
  C        42.9463583700       31.9612549419        5.8090450023
  C        43.6914537804       30.8853056915        5.0954526526
  C        44.6561510775       31.1912183650        4.1232324661
  C        45.2775751586       30.1716384592        3.4054680958
  C        44.9536682582       28.8213086616        3.6429665683
  C        44.0199334462       28.5236563398        4.6535166235
  C        43.3917110019       29.5404061348        5.3657247850
  C        45.5627909395       27.7239886425        2.8577341070
  C        45.5333377275       27.7175098740        1.4364423797
  C        44.8269674417       28.7076996656        0.6834777324
  C        35.1172461160       26.6253274075        0.7381543139
  C        35.1260319468       26.5810214103        3.5513901345
  C        18.1483675591        3.2465523874        5.7068446104
  C        17.4294780901        4.3434879122        4.9976967024
  C        16.4152343883        4.0520984005        4.0731296202
  C        15.7668333710        5.0826592004        3.3976898375
  C        16.1203878341        6.4280410902        3.6213101939
  C        17.1105700885        6.7115090707        4.5798059228
  C        17.7582894975        5.6826587743        5.2596215353
  C        15.4900837793        7.5237554061        2.8487702916
  C        15.4963373545        7.5072505020        1.4276255669
  C        16.1932373449        6.5056460182        0.6809162568
  H        10.6725510539       12.4667841460        3.9037978423
  H        11.6945095099       10.5517513618        2.6618336994
  H        15.3908923404       11.1674730190        4.7729952361
  H        14.3504225513       13.0705960730        6.0182445996
  H        13.3765626418       11.6312329874        1.2012960686
  H        50.3224268612       22.7486358789        3.9872944993
  H        49.3191555873       24.6230514808        2.6810337607
  H        45.6411737476       24.1601157805        4.8627838383
  H        46.6621876178       22.2892367910        6.1710970232
  H        47.6290625100       23.5756400671        1.2461555534
  H        14.8707985478        8.5876864813        4.6085675953
  H        50.2870783670       22.7030079974       12.0597695114
  H        49.2690205082       24.5759221005       13.3599756095
  H        45.6097070578       24.1080610029       11.1471244622
  H        46.6517950263       22.2526264120        9.8329771039
  H        47.6071928475       23.5516661988       14.7967782540
  H        40.6310051095       17.0677911057       11.4074271998
  H        48.6868219916       14.0952096251        7.7999534396
  H        10.6810934638       12.4670147872       12.0934897168
  H        11.6890482795       10.5248991590       13.2973603654
  H        15.3927284501       11.1578414415       11.2051927735
  H        14.3643585500       13.0866858349        9.9898994023
  H        13.3760777153       11.6220715632       14.7529868757
  H        47.9297093033       14.2202940250        9.7102558117
  H        47.7802009333       14.3755107799        6.4951000252
  H        49.0808621546       18.5509631840       10.8666266756
  H        10.4151090365       14.1343827218        7.9987451544
  H        24.4927540872        3.0381514169        3.9263925511
  H        25.6280850118        4.9050877447        2.7052642460
  H        23.2260161331        7.7569278677        4.8494252725
  H        22.1102171275        5.8801050164        6.0725164854
  H        23.8046056220        5.7998504719        1.2795969443
  H        36.3708862515       32.1733280279        3.9656220117
  H        35.2492487625       30.3443804947        2.6940991350
  H        37.5097813509       27.4302921957        4.9078233307
  H        38.6120458916       29.2717452056        6.1881676651
  H        37.0081493862       29.4421040691        1.2816958748
  H        25.7186122853        8.6228918688        4.6634596583
  H        36.4673773245       32.2431515679       12.1242765488
  H        35.3551368642       30.4282950395       13.4200404270
  H        37.5037950637       27.4876924826       11.1291739539
  H        38.5926195011       29.3143797974        9.8223984393
  H        37.0251689363       29.4694761100       14.8351146850
  H        46.1088235233       26.5872407772       11.3855123312
  H        44.6677360466       35.1157860485        7.8139127496
  H        24.4303131738        3.0433861630       12.0967658034
  H        25.5558940035        4.8826308407       13.3520569978
  H        23.1577969570        7.7698792500       11.2515079097
  H        22.0443396950        5.9180405446        9.9964407418
  H        23.7833840693        5.7981272031       14.8302639427
  H        44.9521530669       34.3890727583        9.6944484381
  H        44.8998549708       34.2060909869        6.4905982601
  H        40.6638508879       33.2070622645       10.8521191976
  H        23.1505811643        1.9567787847        8.0061366957
  H        25.8263270253       19.6439396152        3.8392738916
  H        23.6706884106       19.6768828109        2.6088865365
  H        22.2803865461       16.3447353690        4.9507291456
  H        24.4521655831       16.3039570183        6.1686859358
  H        23.7119672570       17.6730191556        1.2442487287
  H        35.1396420663       15.4808874329        3.9562433725
  H        37.2507078342       15.4491029735        2.6407350088
  H        38.7225724736       18.7787178437        4.9357030527
  H        36.6015763465       18.8030145672        6.2501702311
  H        37.2255320963       17.3970964699        1.2404512398
  H        20.3386671135       17.9875150237        4.6665891115
  H        35.1311185543       15.4716670080       12.1263408216
  H        37.2673064854       15.3978377752       13.4092848118
  H        38.7479134579       18.7283702695       11.1236749628
  H        36.6105965314       18.7825685203        9.8333408576
  H        37.2326311568       17.3742203847       14.7941307108
  H        35.1529547984       26.6812287366       11.3926261421
  H        28.4991610702       21.1272781823        8.3606422932
  H        25.7735405215       19.6207786033       12.2030097902
  H        23.5919208304       19.6798032029       13.4137751508
  H        22.2638415046       16.2507544340       11.1829781642
  H        24.4439147017       16.2092440314        9.9652198945
  H        23.6950005217       17.6590049748       14.8006451169
  H        29.2055652809       21.7069356931        9.7037481248
  H        28.9449400527       21.8324748843        6.5208542426
  H        32.0571194438       18.5267638121       11.0119025163
  H        27.3818744161       19.0429446117        8.0421963645
  H        14.8382469870       19.6500702977       12.1385864393
  H        17.0006530532       19.7047405113       13.3820252371
  H        18.3122868184       16.2130275585       11.2400830441
  H        16.1446801678       16.1735022097        9.9974985581
  H        16.9182935391       17.7157214441       14.8384307639
  H        46.0950372780       15.4402625511       12.0678873286
  H        43.9685991110       15.3717741812       13.3694948342
  H        42.5279042596       18.7786859277       11.1735381399
  H        44.6558209619       18.8233563983        9.8626898912
  H        44.0140236505       17.3069182484       14.8152308375
  H        20.2875060231       17.9433520945       11.4158295536
  H        46.0441040047       15.3976373219        4.0200753050
  H        43.9162445704       15.3438476491        2.7210560788
  H        42.5241790364       18.7992519174        4.8712163609
  H        44.6582401986       18.8392219923        6.1715848319
  H        44.0054247256       17.3047946249        1.2640765906
  H        46.1983605458       26.6821858984        4.6232640998
  H        52.7407033151       21.0622988652        8.1945068879
  H        14.8668607934       19.6759837450        3.8994899234
  H        17.0651882091       19.7546369491        2.7134487795
  H        18.3319875524       16.2370672771        4.8387995812
  H        16.1352153467       16.1825014055        6.0344004486
  H        16.9362471560       17.7278667585        1.2866224459
  H        52.3201595839       21.6727425307        6.2952660486
  H        52.0116424156       21.7010241930        9.4951260968
  H        49.0667902055       18.6074881685        5.2046844369
  H        13.2470250388       19.0164499267        7.9772437277
  H        29.9186053137       12.4977558244       12.2986031401
  H        28.8464520910       10.5734967843       13.4717172382
  H        25.2649794163       11.1605743930       11.1627432355
  H        26.3536999412       13.0711003126        9.9797175616
  H        27.1159184614       11.7030870267       14.8058731782
  H        31.0125253048       22.7334988088       12.0573084104
  H        32.0210644324       24.6091719735       13.3483071157
  H        35.6662174350       24.1821963775       11.1047426573
  H        34.6396339030       22.3126339420        9.8054588317
  H        33.6979116949       23.5633790088       14.7501218640
  H        25.7019547168        8.5958183507       11.4173157575
  H        30.9220716724       22.6947978632        3.8728243267
  H        31.9705085503       24.5464687106        2.5871819250
  H        35.5697023795       24.1131404819        4.9051667116
  H        34.5155587707       22.2483449302        6.1816340400
  H        33.6735717943       23.5410192368        1.1959805035
  H        40.6046271978       17.1205273337        4.6518788519
  H        32.5277668269       14.1063749441        8.2774215566
  H        29.8495682337       12.5819039725        3.8889278401
  H        28.8169000403       10.6918400743        2.6322359047
  H        25.2088948985       11.1427867704        4.9322801788
  H        26.2593168908       13.0197249226        6.1973865573
  H        27.1070262343       11.7220734807        1.2501285771
  H        33.3428365690       14.0722907214        6.4533590327
  H        33.4115014876       14.3863977872        9.6196541884
  H        32.0412574518       18.4193634106        5.1538385269
  H        30.1831602501       14.1931468489        8.0544114270
  H        16.1198797078        2.9625244302       12.1315610094
  H        14.9544540595        4.8193813169       13.3244018988
  H        17.3624836646        7.6856098233       11.2075316990
  H        18.5115055006        5.8180587707       10.0075569963
  H        16.7534280036        5.7393248980       14.7716464007
  H        44.8283446167       32.1402265640       11.9767753152
  H        45.9375705270       30.3412419203       13.3062523939
  H        43.6817509158       27.3782166207       11.1529839607
  H        42.5988763577       29.1900091223        9.8105728249
  H        44.2300865554       29.4366053802       14.7687841741
  H        14.8494895671        8.5452511003       11.3633908039
  H        44.8997012717       32.2339003237        3.9318425321
  H        46.0244309257       30.4127665654        2.6521593481
  H        43.7626229158       27.4839554802        4.8447659746
  H        42.6448609510       29.3175614918        6.1238148886
  H        44.2680558842       29.4703172941        1.2180223340
  H        35.0903363536       26.5872231654        4.6393065366
  H        36.6048528799       35.1334478688        8.1809620314
  H        16.1450084632        3.0124110773        3.9026645925
  H        14.9752242986        4.8556093753        2.6868705592
  H        17.3928766251        7.7471281946        4.7577214022
  H        18.5400663248        5.8931304782        5.9855594132
  H        16.7646160439        5.7553580236        1.2193419242
  H        36.2795860282       34.4806245351        6.2736766178
  H        36.3823101561       34.2084279409        9.5003031770
  H        40.5780006211       33.2005997037        5.1544744175
  H        17.4709105675        1.9459663391        7.9739563131
  H        29.1470248876       19.3599456778       12.5921572909
  H        28.5448664327       18.8244667581        3.9050881301
  H        31.8272238889       15.7623181834        3.6151029342
  H        31.2907281451       15.5920471637       12.5293875966
  H        28.0130920181       17.8422359719       14.3833706081
  H        29.3174131363       15.4526244354       14.4512620703
  H        32.4167496580       17.1910887721        1.4038456562
  H        18.8529899073        0.8689714307       12.3349670369
  H        40.5277522794       35.2293535445        3.9524076390
  H        42.3217573670       34.4165440691        3.5924099376
  H        22.0880060853        0.6925349946       12.3508827309
  H        11.5973666472       18.7119727509       12.3816605202
  H        52.2648547726       18.4303897505        3.6783169195
  H        49.2540760141       16.4781136342        3.5858841916
  H        10.1512252187       15.7984972700       12.2923777622
  H        50.8495002853       17.6924766344        3.9543218325
  H        10.0459734289       17.3947995956       12.0519902838
  H        20.2136343167        0.0018834998       12.0422677526
  H        39.1831999262       36.1244375889        3.6869310971
 Ni        30.4366186716       17.3758298086        2.7457086361
 Ni        30.8635128487       16.2961032792       -0.0001450866
 Ni        29.3789530424       17.9895776148        0.3324596833
 Ni        30.0127024387       17.3346301847       13.1608964381
  O        10.6498981479       14.3650825082        5.4856985800
  O        12.6132110179       14.6573702344        6.5839008405
  O        49.1477432092       16.8459511980        7.9898238754
  O        50.3500885152       20.9363859866        5.6482776359
  O        48.3484639666       20.5933766393        6.6660406754
  O        11.0514691274       17.0537636509        6.5005905174
  O        50.3208927933       20.8818298869       10.4068748059
  O        48.3466714808       20.5868268473        9.3271241883
  O        49.5434170396       18.2484888564       10.0683962918
  O        12.3586926276       18.6245373093        7.9997642477
  O        48.6930603912       14.1486304729        6.7512158179
  O         8.2097498495       14.2102894731        9.3225754768
  O        10.7353647232       14.5066101307       10.6644506346
  O        12.5718247294       14.5826604286        9.3285621262
  O        22.8447220414        2.0437357705        5.4872348499
  O        21.6047152290        3.5921047439        6.5909993375
  O        42.0576524025       34.1367749138        7.9790025067
  O        37.9813123170       33.1346392358        5.5721170243
  O        39.2187787949       31.5759114643        6.6667628109
  O        20.3081948912        1.0394560695        6.5018453927
  O        38.0247343344       33.1861882932       10.4149607260
  O        39.2188520458       31.5836750428        9.3266648668
  O        40.6522036541       33.7689841393       10.0603015624
  O        18.2558444364        1.3751417136        7.9968066077
  O        44.6222363278       35.1005247481        6.7586420808
  O        24.2053296043        0.0000450423        9.3208932768
  O        22.7534174948        2.0586141775       10.5845842912
  O        21.6248888542        3.5969335817        9.3438535634
  O        27.5406110580       18.6897547075        5.4138987230
  O        26.7290096888       16.9894708576        6.6765022986
  O        30.6352076367       19.3502673305        8.0818591682
  O        33.5959503433       16.2716038299        5.6784537494
  O        34.2668688939       18.1714203645        6.7374664169
  O        29.4538368037       17.0012658689        6.4052300706
  O        33.5560614961       16.3360999631       10.4085662134
  O        34.2957608023       18.2376957737        9.4024998939
  O        31.6457429690       18.3065481662       10.1571509134
  O        30.3124965822       15.1559468602        8.0789869758
  O        28.5498069195       21.0291373630        6.8983608348
  O        28.5537285165       21.0372678114        9.4153287383
  O        27.4576993152       18.6843189823       10.6552960897
  O        26.6889676345       16.9309915418        9.4249001770
  O        13.1471838611       18.6935922719       10.5868577754
  O        13.9189495227       16.9162954236        9.4047737034
  O        50.5955950628       19.3501884249        8.0207935350
  O        47.6833895425       16.3267557305       10.4170586915
  O        46.9506944287       18.1753992546        9.3253050776
  O        11.0690923778       17.0157241000        9.4897943261
  O        47.6760108519       16.3357680634        5.6528180368
  O        46.9272604376       18.2358223888        6.6643063245
  O        49.5689274057       18.3177748290        5.9824075832
  O        10.3184703568       15.1002784628        7.9971100650
  O        52.6706630274       21.0280583118        9.2418120092
  O        12.1467518315       20.8914068924        6.6732574269
  O        13.1060027729       18.6141316831        5.3260481110
  O        13.9561030624       16.9868050116        6.6656032657
  O        29.9889966300       14.4374173149       10.7259787784
  O        28.0854527770       14.6518680759        9.4985812041
  O        32.0747995861       16.8643532708        8.0735085371
  O        30.9554574225       20.9450729553       10.4014441810
  O        32.9403430840       20.5949369812        9.3341550038
  O        29.5666900046       17.0731551494        9.5054304580
  O        30.8389978030       20.8807158367        5.5729752589
  O        32.7996757965       20.5860919985        6.6744094967
  O        31.5981665181       18.2537814038        6.0041811649
  O        28.2824660486       18.6791767136        8.0767632277
  O        32.4951647665       14.2089872055        9.3356789921
  O        32.4465618509       14.1461045148        6.8217600156
  O        29.9058696925       14.4333418342        5.5027073919
  O        28.0070290489       14.6478379107        6.7400895461
  O        17.8891174084        1.9663866801       10.6628633025
  O        18.9561507128        3.5270033214        9.4080524177
  O        39.1686377155       34.1385604965        7.9970816824
  O        43.2802546222       33.0589944450       10.3316289962
  O        42.0346696248       31.5064315338        9.2415683807
  O        20.3173767561        1.0361553081        9.4807830039
  O        43.2760856304       33.1825210174        5.5749507953
  O        42.0053080361       31.5840712056        6.5830554791
  O        40.5789930282       33.7748181558        5.9355101416
  O        22.3669700285        1.3843652148        7.9981380325
  O        36.6725930074       35.0995770436        9.2334198892
  O        16.4453800131        0.0637005233        6.6680380272
  O        17.9363939873        2.0432126089        5.3264168002
  O        18.9190125509        3.5930077001        6.6660543320
  O        29.5297404438       18.9043616398        3.9934016332
  O        29.7852064042       18.9040565308       12.0082690728
  O        31.3410682505       16.3481917029        4.2273241711
  O        31.2934587401       16.4124563322       11.9950801043
  O        31.7698686376       16.4805204979        1.5828908118
  O        30.2114465045       15.8224211727       14.3228116965
  O        28.8936915589       18.2500235732       14.4776250711
  O        39.4567405043       35.2437878646        4.0019833563
  O        19.1408585942        0.0043163594       11.9907515721
  O        41.9697991843       35.1727225502        4.0873263813
  O        21.6915378371       -0.0691071498       11.8957786101
  O        51.3648469899       18.6142665293        4.0053860412
  O        10.7510569136       18.7473407818       11.9051438089
  O        50.0793799892       16.4128161939        4.0916905568
  O         9.5248822053       16.4830380882       11.9912666142
 Zr         9.2954958749       16.0531237778        6.1823560433
 Zr        49.8349695793       16.0071440766        9.7467374029
 Zr        22.0721565594        0.0278477984        6.1897792375
 Zr        42.4600587551       35.1516208043        9.8005765157
 Zr        29.5868846496       19.2763545296        6.3886315595
 Zr        29.5848669381       19.1020645534        9.9338053178
 Zr        11.0369924074       19.0520653987        9.8277459704
 Zr        11.0427322103       19.1547240530        6.2516592131
 Zr        31.3550048115       16.0761537836        9.9017475333
 Zr        31.4846717013       15.9418042120        6.2849565586
 Zr        18.6000055138       -0.0039409911        9.7637715383
 Zr        18.5056998842       -0.0101885501        6.2133388598
 Zr        12.3006141153       16.3238646721        7.9906580061
 Zr        48.6143859205       18.8324000423        8.0106549694
 Zr        20.3137059684        2.4709395579        7.9912876259
 Zr        40.6413273626       32.6844124778        7.9784807601
 Zr        28.2702248722       16.2984036515        8.1325256483
 Zr        32.6507038076       18.8267138209        8.0450985870
  H        29.1551976160       17.5321688845        1.7784812399
  H        29.0051027279       16.6922017037        5.5951263698
  H        29.8626935561       19.4987798948        3.2824848988
