     569
 i =      153, E =     -4729.5339390873
  C        11.8585764469       14.0535007496        5.7415653862
  C        12.4560444275       12.8904978593        5.0232653279
  C        11.7044508230       12.1718412077        4.0813335891
  C        12.2807824328       11.1096050738        3.3889815780
  C        13.6212305853       10.7395136445        3.6169782301
  C        14.3542813126       11.4428063210        4.5907398136
  C        13.7814287537       12.5077961412        5.2822524757
  C        14.2607435885        9.6488331917        2.8435987869
  C        14.2561619892        9.6567893627        1.4218974300
  C        13.7431488097       10.7589709178        0.6679718968
  C        49.1265515263       21.2333696979        5.8797589266
  C        48.5497074676       22.4011697522        5.1526455344
  C        49.2998000083       23.0685532915        4.1717291150
  C        48.7328596321       24.1076329900        3.4384785359
  C        47.4022565515       24.5091501013        3.6669687990
  C        46.6712117695       23.8601758078        4.6803536376
  C        47.2336729259       22.8153215689        5.4097681902
  C        46.7720620787       25.5868496899        2.8696820137
  C        46.7612188991       25.5573084574        1.4479227596
  C        47.2612342035       24.4422516381        0.7044293934
  C        14.8600395738        8.5704047785        0.7086501534
  C        14.8913703354        8.5967980047        3.5202587771
  C        49.1129974337       21.2034833210       10.1453619266
  C        48.5276262971       22.3648107714       10.8724503319
  C        49.2669023946       23.0256095144       11.8652828621
  C        48.6905667051       24.0601572529       12.5967242387
  C        47.3601033942       24.4568239124       12.3585698228
  C        46.6396398424       23.8118327531       11.3351346941
  C        47.2131974788       22.7759297774       10.6033542380
  C        46.7216659937       25.5317743073       13.1496032690
  C        46.7334932392       25.5281645600       14.5712989951
  C        47.2489803876       24.4289682316       15.3276697512
  C        40.6199942475       17.0832133170       15.3092471500
  C        40.6291342719       17.1044580881       12.4993991912
  C        11.8828484759       14.0864400395       10.2854935078
  C        12.4720443101       12.9104773669       10.9896235536
  C        11.7145975803       12.1775698011       11.9160169618
  C        12.2810992488       11.0950733682       12.5844474227
  C        13.6197795796       10.7210075274       12.3523555176
  C        14.3576245247       11.4361949059       11.3911669609
  C        13.7922810796       12.5174048801       10.7184707350
  C        14.2533779543        9.6242853216       13.1228108467
  C        14.2522717946        9.6443710569       14.5446534607
  C        13.7425733322       10.7534077349       15.2917161854
  C        22.5109676878        3.2432907526        5.7535982121
  C        23.2253728694        4.3478954133        5.0536310645
  C        24.2219058128        4.0662317967        4.1076734168
  C        24.8490442168        5.1049071095        3.4248367084
  C        24.4946749433        6.4465559134        3.6684100098
  C        23.5262715751        6.7198535151        4.6513708617
  C        22.8945684988        5.6829383310        5.3326183839
  C        25.1007603544        7.5519625796        2.8926651867
  C        25.0735297634        7.5445552792        1.4713360433
  C        24.3704729594        6.5458793194        0.7252033808
  C        38.2973662876       31.9277564279        5.8521275589
  C        37.5542558468       30.8399697588        5.1516356112
  C        36.5892770371       31.1485331588        4.1801753856
  C        35.9568329933       30.1318586066        3.4697461448
  C        36.2736366032       28.7797789171        3.7069902570
  C        37.2077206425       28.4787187905        4.7164285349
  C        37.8442519158       29.4944077431        5.4263889377
  C        35.6616353206       27.6927450765        2.9076341224
  C        35.7028739095       27.7071874974        1.4858632917
  C        36.4174278649       28.7069017258        0.7530483435
  C        25.6975714112        8.6138461454        0.7517341983
  C        25.6979329667        8.6263237216        3.5638432850
  C        38.3302690532       31.9600916389       10.1609344622
  C        37.6140360674       30.8871106667       10.9108176345
  C        36.6807348329       31.1965997143       11.9124968599
  C        36.0707601049       30.1798430376       12.6454424248
  C        36.3785612953       28.8259299955       12.4019586796
  C        37.2929782606       28.5264094069       11.3730585504
  C        37.9046953338       29.5396790499       10.6409874199
  C        35.7627096931       27.7278720424       13.1841549832
  C        35.7541485001       27.7254055169       14.6069779849
  C        36.4401594302       28.7169325265       15.3764129232
  C        46.1354594360       26.6207830966       15.2814309332
  C        46.0875927011       26.5800528088       12.4735425238
  C        22.4602706187        3.2552023976       10.2572038577
  C        23.1539630461        4.3638542299       10.9802840619
  C        24.1575156759        4.0774063067       11.9192683423
  C        24.7852024388        5.1073266301       12.6156026577
  C        24.4291460105        6.4528404907       12.3951550312
  C        23.4486109443        6.7326958176       11.4246771525
  C        22.8163032440        5.7029527751       10.7288426295
  C        25.0599503664        7.5502527136       13.1698227794
  C        25.0529378497        7.5432861345       14.5924977469
  C        24.3587531301        6.5464116138       15.3483731875
  C        26.5670579655       17.8255101900        5.7843387885
  C        25.2666211687       17.8849746627        5.0560255440
  C        25.0173489559       18.8859900734        4.1046197344
  C        23.8076914140       18.9123084808        3.4144488596
  C        22.8153274504       17.9411811223        3.6554317325
  C        23.0603053467       16.9639300496        4.6380559415
  C        24.2710402145       16.9323525744        5.3259968728
  C        21.5485054268       17.9301087280        2.8856983522
  C        21.5564392297       17.9151543846        1.4640277483
  C        22.7660838282       17.7939948988        0.7098853872
  C        34.4397735412       17.1908175743        5.9234339097
  C        35.7333122683       17.1440982518        5.1784740346
  C        35.9433033544       16.1641527163        4.1954031421
  C        37.1220365272       16.1496492591        3.4551737147
  C        38.1248481701       17.1132675810        3.6785567255
  C        37.9182188750       18.0738247113        4.6868218624
  C        36.7358140824       18.0941611455        5.4239902239
  C        39.3777121358       17.1169618089        2.8886596769
  C        39.3692818821       17.1157414278        1.4666868552
  C        38.1596995432       17.2286360670        0.7114541959
  C        20.3133470764       17.9367466959        0.7509149753
  C        20.3224368346       17.9274766809        3.5636269179
  C        34.4384148222       17.2385914023       10.1847332855
  C        35.7381252867       17.1427823481       10.9118795884
  C        35.9473487149       16.1559349509       11.8866244913
  C        37.1380646965       16.1232462759       12.6085584764
  C        38.1486661508       17.0767148612       12.3761563191
  C        37.9452241503       18.0378616502       11.3683685614
  C        36.7539861252       18.0750565374       10.6493936360
  C        39.3993884438       17.0889304363       13.1678443462
  C        39.3804555852       17.1019187816       14.5893013636
  C        38.1648611725       17.2206175343       15.3345825650
  C        35.1130180142       26.6493873893       15.3072764251
  C        35.1802223563       26.6543961855       12.4973752403
  C        26.5750787260       17.8282577513       10.3293220680
  C        25.2606862773       17.8783783303       11.0352963884
  C        24.9959876370       18.8889269558       11.9719801946
  C        23.7769278396       18.9186552594       12.6436551871
  C        22.7937590539       17.9391507439       12.3995084334
  C        23.0530318971       16.9535206663       11.4302966611
  C        24.2730657324       16.9207347756       10.7583700425
  C        21.5271546489       17.9247133569       13.1665913881
  C        21.5448391557       17.9112584101       14.5875422349
  C        22.7600828723       17.7919826914       15.3336874144
  C        14.0460551825       17.8320652635       10.2844337931
  C        15.3528990085       17.8967991720       11.0019708512
  C        15.6113981009       18.9088715014       11.9392403946
  C        16.8220737662       18.9352288151       12.6281245622
  C        17.8061092378       17.9524074649       12.4004671136
  C        17.5534841623       16.9659965102       11.4289671972
  C        16.3422692063       16.9350996750       10.7416827165
  C        19.0724469517       17.9357430242       13.1715455323
  C        19.0637469109       17.9274627723       14.5933414758
  C        17.8526324932       17.8268567509       15.3479962424
  C        46.8021421284       17.2161416950       10.1568001664
  C        45.5083533816       17.1458597224       10.8968119422
  C        45.3020972436       16.1608566968       11.8753002261
  C        44.1178851544       16.1330808423       12.6073231241
  C        43.1086884243       17.0901761768       12.3839481834
  C        43.3114550813       18.0538771926       11.3774195320
  C        44.4965792460       18.0854836953       10.6460345788
  C        41.8555588809       17.0943099078       13.1744059341
  C        41.8648696196       17.0958670532       14.5967098974
  C        43.0756358632       17.1940006730       15.3522439157
  C        20.3069838684       17.9344608076       15.3067208156
  C        20.2986877504       17.9170436415       12.4941236588
  C        46.7852187230       17.2324856138        5.8864429221
  C        45.4840564024       17.1285845907        5.1660908977
  C        45.2659103153       16.1281011836        4.2066118419
  C        44.0789587705       16.1002294300        3.4784120167
  C        43.0800589414       17.0701808399        3.6916052704
  C        43.2895319221       18.0420012241        4.6880327864
  C        44.4773107224       18.0757965951        5.4119140452
  C        41.8322966107       17.0879845671        2.8962504751
  C        41.8531845025       17.0911734117        1.4748575475
  C        43.0702185964       17.1886932973        0.7292652296
  C        46.1532096767       26.6371917890        0.7261823172
  C        46.1620024139       26.6558964545        3.5358277651
  C        14.0402203145       17.8287587224        5.7068531324
  C        15.3549160363       17.8979746739        5.0078772491
  C        15.6243852540       18.9168759301        4.0823693091
  C        16.8486124143       18.9524647028        3.4198431774
  C        17.8280058355       17.9682280194        3.6588689332
  C        17.5645786270       16.9761426124        4.6203414804
  C        16.3424728798       16.9401360935        5.2864798246
  C        19.0941061167       17.9475407164        2.8912924877
  C        19.0752542853       17.9323896768        1.4702160053
  C        17.8583228552       17.8285916535        0.7243705726
  C        28.8089600385       14.0899831312       10.3991391541
  C        28.1956819816       12.9169497281       11.0856678675
  C        28.9193238813       12.1731611579       12.0294373029
  C        28.3198147466       11.0971015708       12.6787319728
  C        26.9827967806       10.7416139721       12.4084146293
  C        26.2810244252       11.4657083327       11.4281774515
  C        26.8782340332       12.5418430118       10.7771759850
  C        26.3134157854        9.6616300168       13.1681606043
  C        26.3021710533        9.6872208578       14.5890025913
  C        26.8080343761       10.7988886979       15.3350130440
  C        32.1800606912       21.2380083910       10.1450393399
  C        32.7770681519       22.3992961702       10.8700831678
  C        32.0229042295       23.0884410878       11.8326408353
  C        32.5914175012       24.1288859575       12.5613155914
  C        33.9307414578       24.5099863849       12.3496000230
  C        34.6683764139       23.8391257059       11.3556980188
  C        34.1019809270       22.7931589423       10.6286400914
  C        34.5547983553       25.5875959155       13.1527405518
  C        34.5280969605       25.5646018523       14.5748247339
  C        34.0074877688       24.4533268880       15.3104208722
  C        25.6914835584        8.6097303361       15.3071973764
  C        25.6755460994        8.6123303316       12.4940252465
  C        32.0702638212       21.1970088814        5.8734934371
  C        32.6352181393       22.3656844819        5.1355568564
  C        31.9028848258       23.0083816503        4.1254026991
  C        32.4734729338       24.0512042840        3.3971315855
  C        33.7904898606       24.4803493495        3.6570222817
  C        34.5026802409       23.8517081317        4.6970691937
  C        33.9374247551       22.8065611246        5.4219431217
  C        34.4326762247       25.5644690607        2.8759169437
  C        34.4645387481       25.5531015174        1.4533093192
  C        33.9760591816       24.4482424554        0.6870679079
  C        40.6137980084       17.0855950729        0.7543908085
  C        40.6030899390       17.1194923104        3.5646504793
  C        28.7422495562       14.0639240082        5.8130805121
  C        28.1320514500       12.9185736238        5.0746260339
  C        28.8718146470       12.2098568678        4.1157890563
  C        28.2898827536       11.1536615207        3.4190454846
  C        26.9526326851       10.7785844583        3.6580372093
  C        26.2294859569       11.4740322486        4.6447776943
  C        26.8095425616       12.5318174249        5.3420194552
  C        26.3109632209        9.6876923932        2.8863169251
  C        26.3028355198        9.7002083639        1.4648301940
  C        26.8068533193       10.8062578568        0.7109829385
  C        18.1352684426        3.1807714415       10.3171438112
  C        17.4058067581        4.2779883607       11.0157317475
  C        16.3903078042        3.9995201605       11.9434473717
  C        15.7424886243        5.0394407862       12.6069613672
  C        16.0940849974        6.3832066326       12.3670949693
  C        17.0831927226        6.6528264492       11.4030721799
  C        17.7323595037        5.6155470823       10.7379978180
  C        15.4697589123        7.4908963880       13.1301507616
  C        15.4851441655        7.4902979210       14.5518675212
  C        16.1866909500        6.4966900133       15.3050562710
  C        42.9457428886       31.8594131359       10.0727866970
  C        43.6460565589       30.7717472712       10.8167474610
  C        44.5917725339       31.0930414531       11.8026535697
  C        45.1974243641       30.0874859430       12.5503365258
  C        44.8707908302       28.7344486566       12.3356293551
  C        43.9447694169       28.4201270753       11.3225921166
  C        43.3360014540       29.4252799799       10.5745260464
  C        45.4884152202       27.6551792021       13.1388246723
  C        45.4926848620       27.6808712557       14.5605152910
  C        44.8055893212       28.6889133953       15.3071362133
  C        14.8562510563        8.5628487066       15.2642137237
  C        14.8744340259        8.5626375335       12.4515504716
  C        42.9463183534       31.9614512861        5.8089596672
  C        43.6914478258       30.8853190719        5.0954418909
  C        44.6563167284       31.1911849682        4.1233931941
  C        45.2777731890       30.1715784243        3.4056505302
  C        44.9536588944       28.8212924290        3.6430128493
  C        44.0198251525       28.5236542859        4.6534678546
  C        43.3916116733       29.5404417949        5.3656610843
  C        45.5627560187       27.7239138675        2.8577733763
  C        45.5331803152       27.7173079179        1.4364756700
  C        44.8268505475       28.7075367851        0.6835306663
  C        35.0835921365       26.6419224643        0.7529263121
  C        35.0435328167       26.6216643523        3.5632478344
  C        18.1484067768        3.2467710671        5.7066548501
  C        17.4296633358        4.3435996084        4.9973980981
  C        16.4145640985        4.0522789080        4.0737316784
  C        15.7662031951        5.0828849371        3.3983288325
  C        16.1206741519        6.4281510923        3.6211674567
  C        17.1118872164        6.7115753441        4.5785854504
  C        17.7595949360        5.6826926052        5.2583649018
  C        15.4902193628        7.5238587786        2.8486970270
  C        15.4961893411        7.5072682510        1.4275581263
  C        16.1929179007        6.5055359747        0.6808703319
  H        10.6724160889       12.4661997609        3.9041293742
  H        11.6945348944       10.5513019875        2.6622698466
  H        15.3911981743       11.1679415522        4.7727082089
  H        14.3507712730       13.0707736399        6.0179683122
  H        13.3762326438       11.6311455769        1.2012651239
  H        50.3225584029       22.7486101320        3.9871151804
  H        49.3193734981       24.6229718239        2.6809744631
  H        45.6416545826       24.1608260307        4.8633701425
  H        46.6625875844       22.2900206593        6.1717697689
  H        47.6297392792       23.5758519962        1.2461011198
  H        14.8715773685        8.5879848621        4.6085629372
  H        50.2869783441       22.7028251571       12.0601312147
  H        49.2689662578       24.5756812946       13.3601734672
  H        45.6101820871       24.1089613909       11.1461752212
  H        46.6523017338       22.2536968423        9.8318908045
  H        47.6077480855       23.5518432959       14.7967762128
  H        40.6319830375       17.0724528562       11.4115036384
  H        48.6870786875       14.0950285321        7.8000488409
  H        10.6812310308       12.4668994504       12.0936163606
  H        11.6893439695       10.5249047688       13.2973557833
  H        15.3929347623       11.1580224861       11.2049876250
  H        14.3645383796       13.0865167433        9.9896754024
  H        13.3758257417       11.6220458885       14.7530624411
  H        47.9300760862       14.2185624029        9.7107396808
  H        47.7799334376       14.3737001595        6.4953869053
  H        49.0822049073       18.5519161197       10.8670308249
  H        10.4158713766       14.1343419582        7.9988549659
  H        24.4822565350        3.0272723071        3.9181450217
  H        25.6221778468        4.8872130976        2.6911608030
  H        23.2458639817        7.7531464856        4.8449371837
  H        22.1244450518        5.8834141423        6.0734474326
  H        23.8088869522        5.7893692028        1.2655193248
  H        36.3597053650       32.1930691400        3.9833215975
  H        35.2096731802       30.3764889299        2.7179056636
  H        37.4604821862       27.4379925652        4.9085755169
  H        38.5908475836       29.2676536351        6.1839147676
  H        36.9790434085       29.4564752963        1.3028650310
  H        25.7316466973        8.6096936605        4.6516956836
  H        36.4522557638       32.2408483248       12.1135366839
  H        35.3404061319       30.4277358615       13.4125195730
  H        37.5451310918       27.4862250774       11.1775058816
  H        38.6309347770       29.3108629145        9.8647773824
  H        37.0200677253       29.4738601137       14.8560992777
  H        46.1088586115       26.5873770022       11.3855037740
  H        44.6681791193       35.1160600603        7.8138539764
  H        24.4361491857        3.0391571117       12.0847738875
  H        25.5670899249        4.8787023667       13.3366784228
  H        23.1623584431        7.7671637785       11.2459834092
  H        22.0433010293        5.9155044329        9.9939429002
  H        23.7877266539        5.7907869550       14.8166838453
  H        44.9533038096       34.3899242422        9.6949135482
  H        44.9013738172       34.2065751887        6.4906275534
  H        40.6657542655       33.2086272273       10.8530377381
  H        23.1504168928        1.9573425620        8.0053648095
  H        25.7802921015       19.6393315482        3.9219054329
  H        23.6161303036       19.6934747805        2.6819501602
  H        22.3031847485       16.2065984744        4.8307172507
  H        24.4748128867       16.1653454902        6.0693727251
  H        23.7042826519       17.6714690044        1.2432281620
  H        35.1650545641       15.4244657066        4.0228232383
  H        37.2834938135       15.3821487423        2.7013021471
  H        38.6839509093       18.8263847319        4.8636150989
  H        36.5605655484       18.8504632016        6.1857133074
  H        37.2219945314       17.3557119762        1.2448317527
  H        20.3246697217       17.9622096088        4.6516166043
  H        35.1593147552       15.4307008005       12.0756597441
  H        37.2983705411       15.3544720982       13.3613333393
  H        38.7181701681       18.7809090658       11.1832642321
  H        36.5774455763       18.8347169747        9.8917769603
  H        37.2307866748       17.3406108533       14.7932997435
  H        35.1664765560       26.6764115774       11.4092970930
  H        28.4966309248       21.0776108848        7.8781316828
  H        25.7570666223       19.6450926108       12.1519003906
  H        23.5701602357       19.7060004610       13.3653880797
  H        22.3012322532       16.1910031959       11.2371037133
  H        24.4898001888       16.1488005811       10.0238909963
  H        23.6935892814       17.6680462013       14.7930693743
  H        29.0187240068       21.7148809588        9.7313085361
  H        29.2072998131       21.6891334283        6.5558482586
  H        32.0637307800       18.5714432087       10.9258197247
  H        27.3716461178       19.0275481885        8.0684349143
  H        14.8526678544       19.6686141412       12.1129965068
  H        17.0202271672       19.7242903547       13.3503856892
  H        18.3046389839       16.2004976056       11.2455016381
  H        16.1330365391       16.1604866366       10.0077982380
  H        16.9125532204       17.7156832643       14.8155404367
  H        46.0873718484       15.4306661891       12.0562491993
  H        43.9603759329       15.3619172384       13.3582184893
  H        42.5408748658       18.8011024794       11.1992802516
  H        44.6682596209       18.8445357698        9.8863506737
  H        44.0160006743       17.3058949630       14.8201601982
  H        20.2970780864       17.9493549875       11.4060605299
  H        46.0418854611       15.3858871615        4.0336450772
  H        43.9127097591       15.3226761675        2.7360057607
  H        42.5240543959       18.7960101117        4.8592124490
  H        44.6591192495       18.8445266088        6.1589745459
  H        44.0065315173       17.2955156619        1.2693536511
  H        46.1986670302       26.6823441430        4.6232818683
  H        52.7411630183       21.0626587615        8.1945976020
  H        14.8651771830       19.6743094694        3.9006274412
  H        17.0601113419       19.7455637089        2.7059019403
  H        18.3140434389       16.2104728488        4.8097429692
  H        16.1213886689       16.1634489536        6.0145003220
  H        16.9225301568       17.7185171803        1.2642039082
  H        52.3224743381       21.6735930335        6.2946281464
  H        52.0136609150       21.7026366102        9.4955508830
  H        49.0670031771       18.6081113374        5.2042379274
  H        13.2471102560       19.0166516846        7.9760869101
  H        29.9494171659       12.4528767208       12.2385374448
  H        28.8817446169       10.5183475472       13.4086060187
  H        25.2480195892       11.2005726843       11.2124854971
  H        26.3343519676       13.1222974605       10.0360431698
  H        27.1714166730       11.6674999128       14.7944003360
  H        30.9931459002       22.7851826827       12.0046809105
  H        32.0000514285       24.6609509561       13.3032872624
  H        35.7051209544       24.1224770552       11.1858034483
  H        34.6778491172       22.2518344123        9.8814858190
  H        33.6571207075       23.5827627315       14.7633043996
  H        25.7045814446        8.5939216415       11.4059842446
  H        30.8917908216       22.6683589754        3.9123831663
  H        31.8972528939       24.5481515488        2.6197098245
  H        35.5219569373       24.1698098487        4.9061087596
  H        34.4960127033       22.3008188574        6.2058737285
  H        33.6015298735       23.5733517569        1.2108518584
  H        40.5990579532       17.0920867799        4.6526435597
  H        32.5108463954       14.1379151432        8.2523249011
  H        29.9054009972       12.4968851394        3.9367965192
  H        28.8704575905       10.5998506644        2.6843979734
  H        25.1947245447       11.1967163134        4.8353324317
  H        26.2483490615       13.0851900740        6.0912220751
  H        27.1679204817       11.6805828571        1.2447329780
  H        33.3088677261       14.2373545235        6.4617356880
  H        33.4063811501       14.4132629523        9.5996210729
  H        32.1216291381       18.4779721566        5.1562762434
  H        30.2000302225       14.1397777095        8.0866956155
  H        16.1184929529        2.9629766413       12.1300012408
  H        14.9531748771        4.8199448099       13.3227381200
  H        17.3653016784        7.6857489632       11.2097433264
  H        18.5141223801        5.8182440470       10.0098712323
  H        16.7531637200        5.7392805739       14.7715654236
  H        44.8281867877       32.1401071608       11.9767311418
  H        45.9373979717       30.3411849984       13.3061916097
  H        43.6818409394       27.3780882922       11.1526471190
  H        42.5992261156       29.1899375006        9.8100120904
  H        44.2301541679       29.4366212475       14.7688343707
  H        14.8505205178        8.5457628429       11.3633347048
  H        44.9001100699       32.2338416461        3.9321539147
  H        46.0248580818       30.4127356167        2.6525706777
  H        43.7624660345       27.4839648249        4.8447245278
  H        42.6447910309       29.3176405439        6.1237914525
  H        44.2682586460       29.4703573368        1.2181246975
  H        34.9934263664       26.6350752667        4.6504228055
  H        36.6051940695       35.1339230460        8.1807434691
  H        16.1436066246        3.0126812040        3.9039138234
  H        14.9739505667        4.8559686961        2.6881824918
  H        17.3951880942        7.7470728288        4.7556254349
  H        18.5423031355        5.8931668316        5.9832980692
  H        16.7642652314        5.7552406760        1.2193219577
  H        36.2785900258       34.4822084753        6.2734508488
  H        36.3805732041       34.2091164598        9.4997478852
  H        40.5783152563       33.2011345047        5.1543470044
  H        17.4708782861        1.9469324889        7.9741050185
  H        29.4454151686       19.5054964565       12.5829193776
  H        28.7801537390       18.6619626502        3.7509219239
  H        31.2720077840       15.4977574563        3.6610881272
  H        31.3500209441       15.6320366083       12.4723207975
  H        28.0765738413       18.1283238044       14.3343358409
  H        29.2882326788       15.5141975541       14.2791193127
  H        32.4503941746       16.7762733920        1.5845919969
  H        18.8548457725        0.8695782194       12.3352429034
  H        40.5279536275       35.2290219779        3.9522091893
  H        42.3228329925       34.4177100308        3.5912122426
  H        22.0881390355        0.6917323316       12.3513842420
  H        11.5966810506       18.7129781082       12.3826946176
  H        52.2646959276       18.4311275095        3.6775813394
  H        49.2545161764       16.4770286366        3.5847686454
  H        10.1505573882       15.7983216320       12.2925465041
  H        50.8497497614       17.6926431234        3.9540754357
  H        10.0460413643       17.3947331382       12.0519646102
  H        20.2164679563        0.0025894943       12.0417812592
  H        39.1834314321       36.1241606926        3.6863161674
 Ni        30.6051080705       17.5230174399        2.8279513944
 Ni        30.9050068113       16.2752486854       -0.1619114462
 Ni        29.6730166012       18.2576320390        0.2509200374
 Ni        30.0932077344       17.3814009184       13.0792360671
  O        10.6498401635       14.3651515518        5.4857729712
  O        12.6130763400       14.6574161554        6.5838788163
  O        49.1477021258       16.8459684152        7.9897888238
  O        50.3500919126       20.9362076910        5.6482424824
  O        48.3484697729       20.5932808098        6.6660026614
  O        11.0509061949       17.0541567400        6.5006614640
  O        50.3208148118       20.8817106915       10.4068769938
  O        48.3466567015       20.5867072472        9.3271038740
  O        49.5433634851       18.2484410562       10.0683904524
  O        12.3587824558       18.6247151430        7.9997843761
  O        48.6931782784       14.1486036458        6.7513072421
  O         8.2098487735       14.2104138812        9.3225470658
  O        10.7353233741       14.5067699660       10.6643437107
  O        12.5717547703       14.5827726753        9.3285465265
  O        22.8443100075        2.0425262423        5.4874427589
  O        21.6049747782        3.5919572393        6.5900611544
  O        42.0578501024       34.1369518626        7.9789192054
  O        37.9813390171       33.1367878075        5.5725257010
  O        39.2171209838       31.5750683669        6.6656843006
  O        20.3083073500        1.0393811599        6.5018854867
  O        38.0242799881       33.1845888663       10.4158675303
  O        39.2182776690       31.5828622956        9.3275788289
  O        40.6521173828       33.7689956410       10.0601782730
  O        18.2558044828        1.3761106411        7.9968645495
  O        44.6222355314       35.1004800896        6.7586854285
  O        24.2053784326       -0.0000109862        9.3208234694
  O        22.7529080015        2.0574733841       10.5836580012
  O        21.6242021175        3.5958467036        9.3423199663
  O        27.4644602297       18.6949307939        5.4871539208
  O        26.6928729587       16.9175825340        6.6687795156
  O        30.6308268488       19.3493183865        8.0132534715
  O        33.5890333100       16.2728472457        5.6733889778
  O        34.2717714563       18.1677103321        6.7380986934
  O        29.5401807093       17.0066540684        6.5803263607
  O        33.5560195373       16.3372255311       10.4097193036
  O        34.2982617136       18.2394013313        9.4031595181
  O        31.6535149932       18.3179490514       10.0814659540
  O        30.2935714266       15.1056861481        8.0871983402
  O        28.5485604155       21.0244007897        6.8306548583
  O        28.5147072742       20.9506486002        9.4034316936
  O        27.4638605628       18.6780927660       10.6608176930
  O        26.6915157335       16.9278575161        9.4185247897
  O        13.1473095018       18.6937321096       10.5865028405
  O        13.9184060353       16.9161566893        9.4043759731
  O        50.5957339836       19.3502725022        8.0207399975
  O        47.6826649270       16.3270828600       10.4172768755
  O        46.9503506913       18.1756150583        9.3254802684
  O        11.0689863223       17.0159634184        9.4896539874
  O        47.6756437638       16.3358720585        5.6528765194
  O        46.9260724928       18.2358655361        6.6637980397
  O        49.5682778694       18.3178156215        5.9822899539
  O        10.3186408187       15.1002059956        7.9971709835
  O        52.6707234064       21.0279817874        9.2418049192
  O        12.1467936348       20.8913435916        6.6733216418
  O        13.1052675319       18.6141868295        5.3261427603
  O        13.9551954908       16.9864636166        6.6656369003
  O        29.9927107052       14.4427520015       10.7352424507
  O        28.0873778436       14.6500719849        9.5012987983
  O        32.0776973035       16.8554280093        8.0691316192
  O        30.9631858395       20.9506593264       10.4042761756
  O        32.9433189383       20.6016710896        9.3327501092
  O        29.5578949244       17.0693143990        9.5719863425
  O        30.8461110555       20.8764012209        5.6530172179
  O        32.8665548449       20.5854527928        6.6637354078
  O        31.6730736354       18.2436049449        5.9857732721
  O        28.2567759096       18.6282338905        8.0648457143
  O        32.4919857685       14.2112646059        9.3280053274
  O        32.4070535860       14.2104376777        6.8240016042
  O        29.9175567925       14.4343795231        5.4862231558
  O        28.0360735855       14.5839098771        6.7472439888
  O        17.8891660762        1.9664987129       10.6628214761
  O        18.9561757295        3.5270983541        9.4080462832
  O        39.1685531428       34.1385945625        7.9971999239
  O        43.2801864109       33.0588775424       10.3316469222
  O        42.0343565324       31.5064533870        9.2415710448
  O        20.3174142443        1.0363423510        9.4803496822
  O        43.2760849616       33.1824841714        5.5749016721
  O        42.0052072296       31.5840733866        6.5830288949
  O        40.5788658369       33.7747161459        5.9358246687
  O        22.3671222836        1.3843929278        7.9980092281
  O        36.6728274360       35.0996596326        9.2333880853
  O        16.4455796363        0.0641792846        6.6683137506
  O        17.9363848861        2.0432157262        5.3263969806
  O        18.9189468577        3.5931429714        6.6658816451
  O        29.6990149794       18.6133387019        4.0758450016
  O        29.9464483056       18.9100475017       11.9935061207
  O        31.3296767574       16.3417591620        4.1465698464
  O        31.3424793005       16.4834401678       11.9906923142
  O        31.5462748742       16.4078842449        1.5727096069
  O        30.2076328808       15.8240414528       14.1701906612
  O        29.0282006911       18.3159525271       14.4075572205
  O        39.4567513423       35.2436363960        4.0019738317
  O        19.1428329285        0.0052124177       11.9904020327
  O        41.9695592888       35.1725855354        4.0871342708
  O        21.6914357481       -0.0696153436       11.8958995426
  O        51.3647615709       18.6143412946        4.0052799478
  O        10.7509507410       18.7472644918       11.9050497076
  O        50.0791300666       16.4127641561        4.0917406756
  O         9.5245359860       16.4831054015       11.9911969526
 Zr         9.2965359547       16.0528613068        6.1822719724
 Zr        49.8360278246       16.0069837255        9.7466142083
 Zr        22.0729304227        0.0291095364        6.1891200067
 Zr        42.4606336573       35.1527824721        9.8005107183
 Zr        29.5771559117       19.0317410877        6.2554340935
 Zr        29.5743976686       19.1724213541        9.8338488615
 Zr        11.0374264883       19.0524683139        9.8278574797
 Zr        11.0431836727       19.1552057163        6.2512762648
 Zr        31.3340706337       16.0973042183        9.8450534900
 Zr        31.3737912423       15.9960895384        6.2966185344
 Zr        18.6007990855       -0.0022810082        9.7638582559
 Zr        18.5062985273       -0.0083440803        6.2135330127
 Zr        12.3009517599       16.3234808275        7.9905773313
 Zr        48.6158475236       18.8329869672        8.0104839502
 Zr        20.3144461469        2.4726168929        7.9906194858
 Zr        40.6423827639       32.6861308615        7.9780859319
 Zr        28.3205139983       16.3171202229        8.0874782449
 Zr        32.6217308487       18.8388273857        8.0399121719
  H        30.2270432821       18.6447668015        1.6694120764
  H        29.0273419953       19.5090238751        0.6443541999
  H        31.0970063130       17.7779104682       15.5640128309
