     566
 i =      120, E =     -4712.2550288075
  C        11.8587911934       14.0535336883        5.7415721409
  C        12.4562971456       12.8905917046        5.0233012134
  C        11.7046390274       12.1716043420        4.0816448289
  C        12.2810517438       11.1094031030        3.3893122253
  C        13.6216500675       10.7396338603        3.6170282538
  C        14.3547804829       11.4432766969        4.5904808539
  C        13.7818609932       12.5082500196        5.2819782282
  C        14.2611919947        9.6489578955        2.8436199739
  C        14.2563092615        9.6567856372        1.4219114445
  C        13.7431037331       10.7588949821        0.6680097346
  C        49.1266585309       21.2331851537        5.8797732153
  C        48.5498560373       22.4010728505        5.1527063572
  C        49.2998977423       23.0683838564        4.1716955924
  C        48.7329773616       24.1074987337        3.4384564554
  C        47.4024204523       24.5091544124        3.6670077712
  C        46.6714573986       23.8602898813        4.6805386135
  C        47.2338970818       22.8154138714        5.4099492311
  C        46.7722153397       25.5868642375        2.8697052829
  C        46.7613962048       25.5573615665        1.4479321519
  C        47.2615259581       24.4423912337        0.7043863520
  C        14.8601341717        8.5703938045        0.7086191276
  C        14.8921073727        8.5970592444        3.5202431178
  C        49.1131413325       21.2034497752       10.1453690951
  C        48.5278548880       22.3649180447       10.8723192663
  C        49.2671318851       23.0256101934       11.8652360394
  C        48.6908788348       24.0602148716       12.5966748603
  C        47.3604879502       24.4570959549       12.3584364399
  C        46.6400813775       23.8122844668       11.3348357072
  C        47.2135408865       22.7763118725       10.6030665020
  C        46.7220309264       25.5320151130       13.1495346957
  C        46.7337894597       25.5283361594       14.5712472493
  C        47.2493457474       24.4291727009       15.3276220138
  C        40.5987800844       17.0605436000       15.2874546107
  C        40.5851335962       17.0369295191       12.4766933412
  C        11.8828524669       14.0864976940       10.2854866509
  C        12.4720117579       12.9106098684       10.9896773211
  C        11.7144975302       12.1776039645       11.9159566762
  C        12.2809717754       11.0950856132       12.5843690284
  C        13.6196994444       10.7210833961       12.3524084051
  C        14.3576365682       11.4364163923       11.3913958395
  C        13.7923299275       12.5176534478       10.7187110147
  C        14.2532333646        9.6242770289       13.1228139701
  C        14.2521066825        9.6442974965       14.5446582297
  C        13.7423953836       10.7533038923       15.2917549457
  C        22.5057585406        3.2435291873        5.7452977764
  C        23.2072423923        4.3459847469        5.0275131738
  C        24.2025243246        4.0612493951        4.0808370071
  C        24.8258144395        5.0966623893        3.3889244313
  C        24.4693937395        6.4395683865        3.6230634503
  C        23.4965949708        6.7157766150        4.6013660710
  C        22.8693551950        5.6822423817        5.2922792130
  C        25.0856104942        7.5446733611        2.8532703330
  C        25.0839173743        7.5390271090        1.4314633579
  C        24.3961904465        6.5407510194        0.6711895008
  C        38.2978998930       31.9271050385        5.8503637154
  C        37.5567673450       30.8384623153        5.1470101775
  C        36.5918711827       31.1456342374        4.1748150418
  C        35.9610346010       30.1284842160        3.4629126826
  C        36.2787876998       28.7762090540        3.6987516263
  C        37.2133459121       28.4765705300        4.7084295948
  C        37.8481005734       29.4926703030        5.4199203295
  C        35.6685502067       27.6874796882        2.8987647511
  C        35.7104065780       27.7011747612        1.4766136256
  C        36.4201676518       28.7037293710        0.7431254921
  C        25.7195946438        8.6100902847        0.7245332770
  C        25.6745795610        8.6167637591        3.5361436331
  C        38.3295752100       31.9605140032       10.1593554552
  C        37.6113850205       30.8869478181       10.9060375678
  C        36.6773581833       31.1950846936       11.9073309557
  C        36.0669279369       30.1770891811       12.6380659080
  C        36.3755388360       28.8238236712       12.3925257075
  C        37.2896894120       28.5256988551       11.3630758189
  C        37.9017270078       29.5401285177       10.6331890566
  C        35.7627981020       27.7241665353       13.1743914773
  C        35.7582231314       27.7201741371       14.5971656431
  C        36.4413772957       28.7139411425       15.3662944494
  C        46.1356400964       26.6208740432       15.2814233235
  C        46.0879331651       26.5803221347       12.4735230113
  C        22.4737336118        3.2588061305       10.2527603920
  C        23.1949622027        4.3664605844       10.9566600560
  C        24.2081565354        4.0761265042       11.8850366470
  C        24.8578831422        5.1031064270       12.5673132878
  C        24.5166625178        6.4530334011       12.3466400504
  C        23.5295875368        6.7365346204       11.3833779677
  C        22.8758081311        5.7097126276       10.7004524836
  C        25.1532151996        7.5469598319       13.1281852574
  C        25.1191878808        7.5395886005       14.5516553888
  C        24.4101649140        6.5428404290       15.2943539382
  C        26.6259922147       17.8284978471        5.7134752618
  C        25.3153445492       17.8969226421        5.0071185042
  C        25.0512701741       18.9032828796        4.0651014380
  C        23.8295992008       18.9346927190        3.3960763721
  C        22.8389275593       17.9642467147        3.6484487264
  C        23.0980995954       16.9837980024        4.6242408030
  C        24.3206797883       16.9465924912        5.2908646282
  C        21.5649438292       17.9510757801        2.8884146619
  C        21.5680874553       17.9230081263        1.4665764729
  C        22.7750582752       17.7890933698        0.7101609364
  C        34.4431174100       17.1947582547        5.9192399867
  C        35.7403372946       17.1468020406        5.1795712655
  C        35.9535425083       16.1664934493        4.1971314861
  C        37.1322791709       16.1531840443        3.4566825904
  C        38.1337342827       17.1194680609        3.6757747828
  C        37.9248492753       18.0802319380        4.6839310065
  C        36.7425880960       18.0986357272        5.4223958487
  C        39.3830129779       17.1262695167        2.8778978271
  C        39.3649656521       17.1147230026        1.4555078117
  C        38.1499739134       17.2206046455        0.7086927035
  C        20.3229544865       17.9417142491        0.7568482700
  C        20.3406502546       17.9543334600        3.5704702030
  C        34.3366700167       17.1513132459       10.2662023857
  C        35.6453196536       17.0512438056       10.9734547076
  C        35.8660678896       16.0910061940       11.9733320730
  C        37.0762414769       16.0617371568       12.6637061759
  C        38.0961328971       16.9931991449       12.3809441619
  C        37.8805259872       17.9226721843       11.3452962558
  C        36.6727834308       17.9551588784       10.6546085816
  C        39.3591869781       17.0239508656       13.1555174242
  C        39.3529307019       17.0635290483       14.5775935960
  C        38.1443062555       17.1953848315       15.3321837409
  C        35.1238524140       26.6404668934       15.2975062439
  C        35.1807872389       26.6506602011       12.4875553918
  C        26.5683451085       17.8247645051       10.3160115564
  C        25.2563490519       17.8691873768       11.0249559488
  C        24.9992946003       18.8680302581       11.9766272143
  C        23.7820095622       18.8946014332       12.6512879456
  C        22.7930855030       17.9227936055       12.3979582970
  C        23.0455965847       16.9487003607       11.4151341534
  C        24.2634795213       16.9196499282       10.7387964047
  C        21.5283748570       17.9068913715       13.1685930320
  C        21.5491307113       17.8976928057       14.5899717796
  C        22.7654259044       17.7759864406       15.3340225402
  C        14.0463430281       17.8304577786       10.2864767398
  C        15.3519944213       17.8910511722       11.0073635529
  C        15.6103156186       18.8986733592       11.9496384159
  C        16.8203813946       18.9217690732       12.6400439684
  C        17.8050808846       17.9399425531       12.4097910081
  C        17.5520774065       16.9573447121       11.4342086372
  C        16.3415821401       16.9297836269       10.7452624955
  C        19.0727047961       17.9220200325       13.1796368582
  C        19.0678553871       17.9206094853       14.6018817826
  C        17.8590724154       17.8261914479       15.3610663423
  C        46.7948355801       17.2109057773       10.1512826765
  C        45.4895028502       17.1261043726       10.8756234924
  C        45.2816585313       16.1403015259       11.8535471830
  C        44.0907753282       16.1011777580       12.5756857305
  C        43.0718233380       17.0468691598       12.3447899767
  C        43.2739921714       18.0076589627       11.3347766598
  C        44.4666097685       18.0512276051       10.6136980284
  C        41.8186017321       17.0480884689       13.1409011846
  C        41.8379990915       17.0704287722       14.5642371239
  C        43.0535700077       17.1863130048       15.3099246663
  C        20.3129811561       17.9290272520       15.3122528015
  C        20.2977318768       17.8989502454       12.4995540375
  C        46.7862523019       17.2363509531        5.8798021766
  C        45.4903606763       17.1412810778        5.1461783999
  C        45.2787316640       16.1517182631        4.1736449599
  C        44.0956452893       16.1292221599        3.4381085852
  C        43.0915357905       17.0929847895        3.6570027551
  C        43.2966771076       18.0564785599        4.6630048742
  C        44.4809125739       18.0854680395        5.3934137529
  C        41.8395683773       17.1068740628        2.8661643972
  C        41.8490415554       17.0993076152        1.4440628175
  C        43.0589918105       17.1963887469        0.6870038383
  C        46.1533463025       26.6372310416        0.7261893005
  C        46.1621363670       26.6559203172        3.5358420009
  C        14.0439867409       17.8320102400        5.7079552030
  C        15.3624649172       17.9082862041        5.0141216577
  C        15.6303351740       18.9255268246        4.0858951902
  C        16.8569119784       18.9665185797        3.4271058785
  C        17.8427036975       17.9894477900        3.6712898214
  C        17.5813952105       17.0006036878        4.6371962793
  C        16.3568171092       16.9590406678        5.2994552482
  C        19.1092450858       17.9689765520        2.9018330041
  C        19.0869038878       17.9443752268        1.4803195179
  C        17.8683128994       17.8364677425        0.7374874338
  C        28.8264119073       14.1630922256       10.4174500754
  C        28.2506022265       12.9827335409       11.1238400071
  C        28.9765605031       12.2600708716       12.0829118376
  C        28.3961731983       11.1603813233       12.7149098758
  C        27.0778355466       10.7577831752       12.4137919093
  C        26.3760100096       11.4654782544       11.4211976973
  C        26.9512844102       12.5626856050       10.7888863837
  C        26.4116627713        9.6600894752       13.1549041198
  C        26.3659108925        9.6861099109       14.5752409711
  C        26.8415693604       10.8038749529       15.3317175353
  C        32.1818922044       21.2286032604       10.1412934181
  C        32.7802697337       22.3936874098       10.8579189603
  C        32.0346509247       23.0664114506       11.8391444250
  C        32.6043160057       24.1063037582       12.5674436547
  C        33.9364090251       24.5033277129       12.3385899610
  C        34.6639909704       23.8496258014       11.3256066063
  C        34.0967202209       22.8043865688       10.5979138332
  C        34.5621441758       25.5795667891       13.1425580389
  C        34.5433306102       25.5530802000       14.5649758650
  C        34.0364080409       24.4357880042       15.3006071957
  C        25.7431988452        8.6060167969       15.2797102542
  C        25.7878831288        8.6084791193       12.4669411813
  C        32.0874868802       21.1678167406        5.8343960523
  C        32.6515589642       22.3386142483        5.1024829107
  C        31.9285919071       22.9697023693        4.0782226603
  C        32.4975030342       24.0206072318        3.3608330302
  C        33.8044965540       24.4674183322        3.6427666798
  C        34.5061873479       23.8498037355        4.6965569528
  C        33.9417461961       22.7986754191        5.4131589869
  C        34.4469891075       25.5540013744        2.8658515016
  C        34.4841581600       25.5401349778        1.4432600190
  C        34.0078833131       24.4297763706        0.6772051038
  C        40.6039546549       17.0810794464        0.7333325499
  C        40.6142640198       17.1377658944        3.5434403495
  C        28.7374085678       14.0608211130        5.7853046712
  C        28.1227772344       12.9075747894        5.0645097841
  C        28.8542753553       12.2096350380        4.0911269479
  C        28.2718518677       11.1508172084        3.4001935258
  C        26.9399148429       10.7649478077        3.6528732646
  C        26.2264811851       11.4476440647        4.6559784455
  C        26.8087042812       12.5058632351        5.3518202640
  C        26.2980503126        9.6805370451        2.8718331558
  C        26.3074530320        9.6979689816        1.4498804064
  C        26.8120614755       10.8108294417        0.7069832260
  C        18.1354882564        3.1809302686       10.3171363313
  C        17.4058785830        4.2781301612       11.0155157343
  C        16.3901199336        3.9996003070       11.9429584985
  C        15.7422357644        5.0394618612       12.6064986724
  C        16.0939725831        6.3832474956       12.3669023191
  C        17.0832823589        6.6529332698       11.4031023722
  C        17.7325708346        5.6157135265       10.7380268557
  C        15.4696021865        7.4908786018       13.1300480755
  C        15.4849935048        7.4902261723       14.5517725922
  C        16.1865571831        6.4966005929       15.3049175322
  C        42.9457299301       31.8595932807       10.0728183117
  C        43.6460918489       30.7719001479       10.8167903556
  C        44.5916661449       31.0932330101       11.8028131183
  C        45.1973889628       30.0877017476       12.5504850857
  C        44.8709445591       28.7346371372       12.3356642223
  C        43.9450436409       28.4202838990       11.3225246533
  C        43.3362094911       29.4254168240       10.5744731368
  C        45.4886221651       27.6553617663       13.1388349396
  C        45.4928160860       27.6809554146       14.5605328708
  C        44.8056361259       28.6889256935       15.3071727850
  C        14.8561501757        8.5627773805       15.2641742967
  C        14.8743188758        8.5626773660       12.4515018479
  C        42.9463832549       31.9615418332        5.8090015939
  C        43.6914698643       30.8853844471        5.0954013984
  C        44.6563685373       31.1912414755        4.1233817030
  C        45.2778565428       30.1716291364        3.4056544805
  C        44.9537794285       28.8213396525        3.6430433818
  C        44.0199349932       28.5237169330        4.6534915882
  C        43.3916924184       29.5405064682        5.3656655566
  C        45.5628663005       27.7239382342        2.8577998263
  C        45.5332575949       27.7173095869        1.4364980766
  C        44.8268911957       28.7075239109        0.6835674005
  C        35.0965157154       26.6326251694        0.7433402853
  C        35.0517349270       26.6148733483        3.5536999770
  C        18.1488973778        3.2469062988        5.7068074763
  C        17.4303999417        4.3438283156        4.9974126954
  C        16.4150493927        4.0525643298        4.0739936353
  C        15.7667243098        5.0831761004        3.3985676242
  C        16.1214882871        6.4284181992        3.6210855599
  C        17.1130336241        6.7118093501        4.5781815617
  C        17.7606927680        5.6829088022        5.2580063370
  C        15.4908645583        7.5240813421        2.8486409639
  C        15.4964621680        7.5073347694        1.4274919202
  C        16.1930101802        6.5055258154        0.6807343763
  H        10.6724887606       12.4656552703        3.9046213474
  H        11.6947722505       10.5508654962        2.6628069712
  H        15.3918410919       11.1687734185        4.7721898481
  H        14.3513568162       13.0715304591        6.0173452876
  H        13.3762424111       11.6310859796        1.2013155903
  H        50.3226309037       22.7484030810        3.9869931085
  H        49.3195143140       24.6227805164        2.6809294728
  H        45.6419759536       24.1611028293        4.8637140959
  H        46.6628719215       22.2902595666        6.1720955177
  H        47.6301600049       23.5760260666        1.2460211113
  H        14.8726254679        8.5883746573        4.6085556239
  H        50.2871525125       22.7027069063       12.0601842862
  H        49.2693233877       24.5756331672       13.3601640748
  H        45.6107177163       24.1096377133       11.1457220669
  H        46.6526330583       22.2541986828        9.8315326885
  H        47.6083052297       23.5521348068       14.7967155106
  H        40.5799597210       16.9872275622       11.3893259216
  H        48.6869029754       14.0952932492        7.7999761661
  H        10.6810912495       12.4668381812       12.0934647108
  H        11.6891652963       10.5248296928       13.2971633245
  H        15.3930037821       11.1583662846       11.2053543431
  H        14.3647202794       13.0868624250        9.9900955452
  H        13.3756094317       11.6219430206       14.7531331924
  H        47.9301369274       14.2191826304        9.7112680533
  H        47.7798358440       14.3733714204        6.4951366419
  H        49.0809170033       18.5509602797       10.8663712486
  H        10.4159002520       14.1344527306        7.9990460829
  H        24.4678145439        3.0219949134        3.8999612353
  H        25.6009742127        4.8749512696        2.6585820474
  H        23.2121288970        7.7494235038        4.7870222606
  H        22.0990416472        5.8867104919        6.0318959977
  H        23.8251661384        5.7831581120        1.2001908031
  H        36.3604656402       32.1898837751        3.9783815015
  H        35.2138471463       30.3734758484        2.7111898230
  H        37.4679445187       27.4362004472        4.9001578407
  H        38.5945121831       29.2656866232        6.1775913434
  H        36.9790066947       29.4558496435        1.2923129084
  H        25.6942159599        8.5950268007        4.6242577254
  H        36.4490256077       32.2390556568       12.1099680793
  H        35.3361718799       30.4234463746       13.4052509220
  H        37.5418404468       27.4857867374       11.1661427869
  H        38.6282460658       29.3129656118        9.8567869970
  H        37.0174677454       29.4735355784       14.8456462493
  H        46.1092896110       26.5877503853       11.3854861299
  H        44.6681152291       35.1160246013        7.8140866287
  H        24.4760593928        3.0359061931       12.0563302618
  H        25.6432451432        4.8668080131       13.2822325982
  H        23.2520610012        7.7727590107       11.2008058501
  H        22.0974653478        5.9300463588        9.9733521863
  H        23.8495185231        5.7872657422       14.7517920495
  H        44.9531020152       34.3899060819        9.6949589748
  H        44.9013134659       34.2067928853        6.4905578332
  H        40.6657741822       33.2091895449       10.8530600898
  H        23.1509670216        1.9578498072        8.0024080646
  H        25.8124933518       19.6552564903        3.8698287288
  H        23.6289092419       19.7176828748        2.6679438430
  H        22.3434101568       16.2265944780        4.8266535310
  H        24.5346764138       16.1749430991        6.0264772823
  H        23.7144267966       17.6648787748        1.2411360136
  H        35.1768383701       15.4264906240        4.0201602131
  H        37.2924131444       15.3852879155        2.7029696145
  H        38.6876280025       18.8362472595        4.8589217811
  H        36.5671173668       18.8576014707        6.1814068376
  H        37.2160956121       17.3555022931        1.2469672907
  H        20.3464605153       17.9962869385        4.6582470092
  H        35.0751196158       15.3823185613       12.2083540320
  H        37.2423039525       15.3126362500       13.4347761447
  H        38.6577108683       18.6489899206       11.1166244128
  H        36.4921774274       18.6917373178        9.8754878903
  H        37.2050434972       17.3115650405       14.7994543877
  H        35.1620481890       26.6761049783       11.3996257746
  H        28.5119759406       21.0656401986        7.8730688229
  H        25.7652843942       19.6163827506       12.1682473281
  H        23.5818189016       19.6737562490       13.3836148440
  H        22.2904257111       16.1915475028       11.2142088319
  H        24.4739298594       16.1560345336        9.9938662945
  H        23.6972498656       17.6410643940       14.7929701985
  H        29.0140281270       21.7100345290        9.7363745029
  H        29.1717739137       21.7237648640        6.5485979437
  H        32.0811557032       18.5648782652       10.9507326538
  H        27.3727967064       19.0108649313        7.9978496996
  H        14.8521779879       19.6584584722       12.1258234740
  H        17.0179019923       19.7085464066       13.3649405492
  H        18.3028160035       16.1920409471       11.2481235122
  H        16.1334240868       16.1579912155       10.0080944388
  H        16.9172303194       17.7126246229       14.8322059498
  H        46.0724115314       15.4185635958       12.0447654006
  H        43.9378041932       15.3304779027       13.3280933961
  H        42.4980142914       18.7469300254       11.1466989001
  H        44.6347651313       18.8114133185        9.8541834749
  H        43.9892302709       17.2980743770       14.7696259255
  H        20.2935023207       17.9289180495       11.4114230435
  H        46.0560693588       15.4115461304        3.9977678336
  H        43.9352282828       15.3572921571        2.6885921000
  H        42.5292570740       18.8074628907        4.8388574720
  H        44.6567903321       18.8475609177        6.1487174722
  H        43.9990538761       17.3153550520        1.2181721636
  H        46.1988461480       26.6824121874        4.6232938054
  H        52.7412348696       21.0627475143        8.1946552808
  H        14.8674911198       19.6778150219        3.8979383704
  H        17.0644784896       19.7585199778        2.7107575349
  H        18.3345135083       16.2400125275        4.8326382248
  H        16.1393992969       16.1831310050        6.0294578027
  H        16.9334625701       17.7306024093        1.2796886771
  H        52.3228377147       21.6735444668        6.2943237671
  H        52.0138648811       21.7026790432        9.4957218333
  H        49.0681769678       18.6083850198        5.2038610150
  H        13.2473023973       19.0165923945        7.9767958560
  H        29.9938365685       12.5683436900       12.3169313281
  H        28.9623692645       10.5995552784       13.4554775143
  H        25.3569197920       11.1696545097       11.1808049849
  H        26.4035687346       13.1249901027       10.0372162684
  H        27.2033960532       11.6791184008       14.8010269561
  H        31.0124691219       22.7476813926       12.0282732354
  H        32.0191232259       24.6245865390       13.3238800797
  H        35.6947923533       24.1452389698       11.1410501782
  H        34.6667360857       22.2771383282        9.8363951428
  H        33.6944765247       23.5614032315       14.7542201079
  H        25.8371169828        8.5918672626       11.3794594573
  H        30.9270359942       22.6142619309        3.8458916683
  H        31.9278795391       24.5095449404        2.5736110862
  H        35.5176380117       24.1807956254        4.9228022625
  H        34.4926532021       22.3027188893        6.2086050642
  H        33.6447821252       23.5498716733        1.2004153048
  H        40.6190530642       17.1159341438        4.6315782077
  H        32.5193175203       14.1388049102        8.1413775360
  H        29.8793838244       12.5128768042        3.8919726640
  H        28.8469037135       10.6068852879        2.6540416560
  H        25.1961390924       11.1628425962        4.8590822715
  H        26.2528746684       13.0498731114        6.1118369837
  H        27.1506607686       11.6905265972        1.2465469688
  H        33.3104265660       14.2573999390        6.3920125611
  H        33.4021752517       14.2979787237        9.5542020011
  H        32.0975340364       18.4725185287        5.0677817445
  H        30.1892021851       14.1330860879        8.0884491441
  H        16.1181656771        2.9630583502       12.1293155697
  H        14.9527902423        4.8199053921       13.3221127865
  H        17.3655665951        7.6858542197       11.2100176918
  H        18.5146335216        5.8185191238       10.0102491196
  H        16.7529387070        5.7391538665       14.7713867161
  H        44.8279502030       32.1403167641       11.9769719885
  H        45.9372809288       30.3414657532       13.3064006422
  H        43.6822720793       27.3782220904       11.1524782045
  H        42.5995449452       29.1900522504        9.8098606444
  H        44.2301986763       29.4366373666       14.7688781941
  H        14.8504993736        8.5459027868       11.3632834673
  H        44.9001523192       32.2339016571        3.9321232888
  H        46.0249707952       30.4128121298        2.6526101252
  H        43.7626362599       27.4840235585        4.8447964474
  H        42.6448789670       29.3177278904        6.1238105461
  H        44.2682932300       29.4703310460        1.2181746805
  H        34.9981503733       26.6297678760        4.6407161731
  H        36.6051837126       35.1340758408        8.1805588017
  H        16.1438183520        3.0129980208        3.9044320595
  H        14.9742585198        4.8562777076        2.6886533091
  H        17.3966313168        7.7472748947        4.7549475603
  H        18.5435734866        5.8933909985        5.9827599790
  H        16.7644465151        5.7552536307        1.2191269852
  H        36.2791283960       34.4820990647        6.2733629325
  H        36.3806078903       34.2092210886        9.4996466954
  H        40.5786677510       33.2017758203        5.1543011690
  H        17.4717284984        1.9476237455        7.9742326413
  H        29.1400499542       19.4811583350       12.4843589276
  H        28.7734644516       18.6970665807        3.7068789550
  H        31.6879567500       15.6431634800        3.4308215663
  H        27.7209217222       18.3150674866       14.4559668336
  H        29.4926077522       15.1434353577       13.8718324763
  H        32.2684441373       17.2004492051        1.1900658232
  H        18.8525457075        0.8687858847       12.3351617294
  H        40.5282378795       35.2289459991        3.9521639879
  H        42.3231294404       34.4179562064        3.5911627323
  H        22.0877283370        0.6920253205       12.3519692748
  H        11.5968886417       18.7125884971       12.3824567327
  H        52.2650814787       18.4311895503        3.6779487651
  H        49.2545929023       16.4769816548        3.5848600671
  H        10.1502510584       15.7983426750       12.2926080390
  H        50.8501655701       17.6926428936        3.9540828055
  H        10.0459604674       17.3949038546       12.0519123516
  H        20.2134456161        0.0021126953       12.0422378856
  H        39.1835237577       36.1240213400        3.6860379235
 Ni        30.5234270341       17.5274263638        2.6620312560
 Ni        30.7765104488       16.2572503153       -0.3306219614
 Ni        29.5098392019       18.2513403958        0.0048793495
 Ni        29.8876051676       17.5487912820       13.4086586979
  O        10.6499748200       14.3651809217        5.4858721481
  O        12.6131778354       14.6575554758        6.5839323505
  O        49.1474316885       16.8459275990        7.9899442045
  O        50.3501272542       20.9359076673        5.6481804157
  O        48.3484863486       20.5931635173        6.6660645611
  O        11.0515571338       17.0538050041        6.5006477807
  O        50.3209134208       20.8816541631       10.4068369739
  O        48.3466771399       20.5866041341        9.3271369904
  O        49.5435082648       18.2483693281       10.0682196811
  O        12.3589199608       18.6246647777        7.9997182138
  O        48.6931281301       14.1487264721        6.7512716102
  O         8.2097628948       14.2107205774        9.3226960130
  O        10.7351974570       14.5067805508       10.6642958810
  O        12.5717344984       14.5828144778        9.3285286991
  O        22.8442230413        2.0424330805        5.4867988493
  O        21.6060947180        3.5926587445        6.5887279923
  O        42.0579002522       34.1374153442        7.9793487347
  O        37.9814140724       33.1363835921        5.5720586600
  O        39.2167858476       31.5747713223        6.6651877459
  O        20.3084784758        1.0400829484        6.5024140920
  O        38.0242528037       33.1847560739       10.4156556816
  O        39.2185709139       31.5832000532        9.3271922122
  O        40.6523497958       33.7696717741       10.0602785395
  O        18.2564684872        1.3765076876        7.9968728995
  O        44.6221267008       35.1006070366        6.7588519732
  O        24.2053562139        0.0000645600        9.3208493294
  O        22.7543714557        2.0594640791       10.5849589582
  O        21.6272733102        3.5989962764        9.3469352381
  O        27.5283219188       18.6911961169        5.4104243723
  O        26.7644819619       16.9142049090        6.5903171772
  O        30.6391462162       19.3412256876        8.0060033231
  O        33.5925902552       16.2759563943        5.6647100275
  O        34.2702053928       18.1685230225        6.7371463156
  O        29.6033376585       17.0052282050        6.5729086095
  O        33.4182644514       16.2866673686       10.5736754183
  O        34.2164790125       18.0902383872        9.4153299658
  O        31.6083793621       18.2480834165       10.1628854634
  O        30.2938724001       15.0981184078        8.0636434019
  O        28.5551117872       21.0225807228        6.8247985418
  O        28.5151034262       20.9462633117        9.4001150082
  O        27.4538755841       18.6773224368       10.6492868340
  O        26.6937286840       16.9251939268        9.4055189096
  O        13.1478717115       18.6932570115       10.5869113302
  O        13.9187335817       16.9161590407        9.4045176843
  O        50.5956069694       19.3500769327        8.0207145002
  O        47.6796661821       16.3277650027       10.4179798499
  O        46.9483161431       18.1753944090        9.3264987193
  O        11.0692651509       17.0157088434        9.4895186776
  O        47.6747856202       16.3363601972        5.6518474644
  O        46.9247608050       18.2357842056        6.6628758250
  O        49.5683205422       18.3176679564        5.9824758229
  O        10.3186453706       15.1003176070        7.9971795431
  O        52.6707252383       21.0278977766        9.2418113899
  O        12.1467779952       20.8912411656        6.6733412703
  O        13.1063107363       18.6140478610        5.3258546487
  O        13.9573825492       16.9874594153        6.6648998824
  O        29.9999637020       14.5846506466       10.7430426210
  O        28.0928845943       14.6568574554        9.4956267883
  O        32.0710603139       16.8427756127        8.0019027804
  O        30.9674174779       20.9434883055       10.4017807065
  O        32.9484211915       20.5822485231        9.3330219034
  O        29.5560886811       17.0668618678        9.5548970542
  O        30.8814282971       20.8140157312        5.5768193913
  O        32.8679013260       20.5843165659        6.6631931832
  O        31.6782836812       18.2409844653        5.9145446385
  O        28.2625855877       18.6217778644        8.0026872175
  O        32.4884227162       14.2058227036        9.2343586900
  O        32.4047828628       14.2130430136        6.7439636496
  O        29.9027372341       14.4351798636        5.4187303635
  O        28.0465211975       14.5803354871        6.7363019714
  O        17.8893136156        1.9666359475       10.6627679590
  O        18.9565164934        3.5272091801        9.4080460531
  O        39.1685229758       34.1386440070        7.9971436706
  O        43.2801551783       33.0590062185       10.3316794649
  O        42.0343553417       31.5065090120        9.2415866643
  O        20.3176933573        1.0367261282        9.4801221799
  O        43.2760462273       33.1825430743        5.5749116125
  O        42.0051820149       31.5841131047        6.5830002381
  O        40.5788883334       33.7748633769        5.9361488661
  O        22.3674259170        1.3851573270        7.9983543481
  O        36.6728630038       35.0997481716        9.2332553017
  O        16.4457979657        0.0642482840        6.6682933383
  O        17.9365421173        2.0433552725        5.3264816082
  O        18.9193771664        3.5930764795        6.6661107078
  O        29.6966325296       18.6126556915        4.0073077457
  O        29.7778487094       18.9176449196       12.0006688409
  O        31.3407128958       16.3445153933        4.0109593403
  O        31.5515590689       16.5564245429        1.3447871200
  O        30.2398733608       15.7572818582       13.9785709215
  O        28.5912049879       18.7568670998       14.4775051762
  O        39.4568697512       35.2436334613        4.0020518214
  O        19.1405809143        0.0042884947       11.9905923229
  O        41.9694600956       35.1725298571        4.0872593336
  O        21.6913785651       -0.0692017878       11.8959406669
  O        51.3650045704       18.6143333568        4.0053968202
  O        10.7510246260       18.7471202276       11.9050275630
  O        50.0791826009       16.4127376405        4.0918591403
  O         9.5243215730       16.4831874939       11.9911593360
 Zr         9.2969847043       16.0528289514        6.1824003454
 Zr        49.8364106194       16.0072033589        9.7467643472
 Zr        22.0728619982        0.0295101448        6.1895128714
 Zr        42.4608232580       35.1539672832        9.8015075736
 Zr        29.6017120429       19.0301517436        6.1932500477
 Zr        29.5492462035       19.1645671559        9.8657081961
 Zr        11.0378874982       19.0522868935        9.8279369547
 Zr        11.0437932048       19.1549851461        6.2512552376
 Zr        31.3426954993       16.0861299354        9.7128932839
 Zr        31.3640340627       15.9875787232        6.1438063832
 Zr        18.6008455937       -0.0019398698        9.7632203210
 Zr        18.5066005203       -0.0077690323        6.2135434099
 Zr        12.3022844898       16.3235612584        7.9902456397
 Zr        48.6157688702       18.8329009233        8.0108194297
 Zr        20.3163576834        2.4742101847        7.9920118664
 Zr        40.6426890432       32.6864966367        7.9780259048
 Zr        28.3279044137       16.3282333175        8.0549286290
 Zr        32.5954896501       18.8427637505        8.0122726252
  H        30.0031564213       18.5399954461        1.5458025179
  H        30.7517152146       17.7928698385       14.9782352599
