     568
 i =      133, E =     -4744.3607263398
  C        11.8586736887       14.0536745902        5.7416254832
  C        12.4562226908       12.8906085136        5.0234553305
  C        11.7046109352       12.1719088434        4.0815522922
  C        12.2809593858       11.1097129695        3.3891441947
  C        13.6214284833       10.7396680869        3.6171044495
  C        14.3544512223       11.4429100384        4.5909290932
  C        13.7815931583       12.5078899201        5.2824824790
  C        14.2610419405        9.6490846447        2.8436295639
  C        14.2564784507        9.6570564290        1.4219113518
  C        13.7432590127       10.7591467036        0.6679891563
  C        49.1267643560       21.2329884424        5.8796762990
  C        48.5500316798       22.4009051450        5.1525272885
  C        49.3002038786       23.0685373900        4.1718466510
  C        48.7332871561       24.1077098130        3.4386774227
  C        47.4026162327       24.5090743028        3.6670314213
  C        46.6714604946       23.8598153259        4.6801395507
  C        47.2339003426       22.8148729040        5.4094607714
  C        46.7724389912       25.5868763437        2.8698033758
  C        46.7614551540       25.5573519177        1.4480348069
  C        47.2613071796       24.4422290441        0.7045321761
  C        14.8605304544        8.5707882268        0.7086176421
  C        14.8918426657        8.5971050857        3.5202325666
  C        49.1130056344       21.2033608167       10.1453076438
  C        48.5275382726       22.3645966824       10.8725833241
  C        49.2669249157       23.0257802238       11.8650747524
  C        48.6905513178       24.0602997342       12.5965507275
  C        47.3599248108       24.4565967028       12.3587091711
  C        46.6392591548       23.8111492282       11.3357181558
  C        47.2128708902       22.7752530368       10.6039448651
  C        46.7215388197       25.5316474647       13.1497154835
  C        46.7334630573       25.5281261207       14.5714196479
  C        47.2489410849       24.4289128633       15.3277708169
  C        40.6140618032       17.1023229198       15.3182403685
  C        40.6283765512       17.1097235329       12.5082846445
  C        11.8828552401       14.0867291409       10.2853250483
  C        12.4722050214       12.9107585389       10.9894544687
  C        11.7148827189       12.1779614601       11.9160327305
  C        12.2814386051       11.0955028114       12.5844981410
  C        13.6200709497       10.7213549524       12.3522713970
  C        14.3577663052       11.4363750463       11.3908304264
  C        13.7923475030       12.5175285869       10.7180875327
  C        14.2537659020        9.6246861189       13.1227510214
  C        14.2526355947        9.6447237977       14.5446121639
  C        13.7427289448       10.7536339137       15.2917280569
  C        22.5108822681        3.2456867932        5.7519427112
  C        23.2209329512        4.3538575485        5.0510612007
  C        24.2194026850        4.0797216071        4.1046465790
  C        24.8414060415        5.1230138561        3.4232149849
  C        24.4807433330        6.4633900163        3.6670657520
  C        23.5101549607        6.7289979564        4.6502763035
  C        22.8839375046        5.6876654363        5.3304232918
  C        25.0821569128        7.5732714500        2.8919036140
  C        25.0618395391        7.5630826469        1.4700429407
  C        24.3652575308        6.5604440417        0.7231915141
  C        38.2951613842       31.9260519166        5.8530696913
  C        37.5471834646       30.8361021612        5.1566604452
  C        36.5758246169       31.1421883165        4.1905133398
  C        35.9397874810       30.1243552021        3.4838013284
  C        36.2582370568       28.7718640370        3.7181564878
  C        37.1978280325       28.4731042264        4.7233887696
  C        37.8378238154       29.4901029604        5.4297632135
  C        35.6474160071       27.6841227481        2.9154810828
  C        35.6956500812       27.7008791189        1.4931528386
  C        36.4094214441       28.7045412177        0.7646183838
  C        25.6867004790        8.6322366579        0.7501988333
  C        25.6700956118        8.6535144266        3.5626942027
  C        38.3319456069       31.9611846524       10.1618017064
  C        37.6184100609       30.8889972984       10.9153976491
  C        36.6846210263       31.2000957655       11.9159570529
  C        36.0757586338       30.1844955114       12.6514220968
  C        36.3858353580       28.8308281821       12.4108229529
  C        37.3023303404       28.5295568075       11.3844004735
  C        37.9126806561       29.5416728943       10.6498748914
  C        35.7683318593       27.7323756467       13.1907078562
  C        35.7565714546       27.7263210038       14.6134761976
  C        36.4368586993       28.7179238388       15.3879161251
  C        46.1355967803       26.6208358502       15.2815636155
  C        46.0874710063       26.5799379364       12.4736682701
  C        22.4622807078        3.2565232428       10.2579902375
  C        23.1585237351        4.3651900545       10.9800090915
  C        24.1603366264        4.0789989323       11.9212824282
  C        24.7899876577        5.1089105097       12.6165381224
  C        24.4385851795        6.4554057106       12.3933596459
  C        23.4601877117        6.7347755027       11.4202840327
  C        22.8257644485        5.7051569247       10.7257026732
  C        25.0695289422        7.5542330127       13.1676056208
  C        25.0563139242        7.5522679407       14.5905192955
  C        24.3599727279        6.5569131256       15.3463061600
  C        26.6788565531       17.8788918436        5.7302450545
  C        25.3783877810       17.9695924526        4.9998385530
  C        25.1397364238       18.9544524658        4.0283765750
  C        23.9117445600       19.0080594121        3.3678446226
  C        22.8886564276       18.0778026548        3.6490800725
  C        23.1276311197       17.1168490685        4.6501320366
  C        24.3514831355       17.0613802411        5.3123699211
  C        21.6064578136       18.0702179264        2.8976460394
  C        21.5967352738       18.0302974867        1.4750306068
  C        22.7971523215       17.8945585987        0.7081008432
  C        34.4212127950       17.2239936616        5.9138032350
  C        35.7147404485       17.1574277488        5.1777628681
  C        35.8972790884       16.2107801978        4.1572790563
  C        37.0801003116       16.1880944750        3.4234693049
  C        38.1116504537       17.1112585307        3.6864923702
  C        37.9309636786       18.0353689664        4.7342528862
  C        36.7470723744       18.0633288522        5.4671948728
  C        39.3648664792       17.1175324327        2.8970397532
  C        39.3589799736       17.1345726897        1.4742393967
  C        38.1528838871       17.2681978669        0.7168299244
  C        20.3452083515       18.0335145418        0.7743484985
  C        20.3838288860       18.0682300466        3.5875531760
  C        34.4377350565       17.2375255428       10.1948277128
  C        35.7366016248       17.1381655866       10.9168963107
  C        35.9304498234       16.1787156332       11.9220925467
  C        37.1214702734       16.1505131958       12.6435474292
  C        38.1473677885       17.0801307391       12.3814048588
  C        37.9587503650       18.0110609121       11.3420661066
  C        36.7677327362       18.0452071818       10.6237327329
  C        39.3967943150       17.1007010295       13.1746442932
  C        39.3755069919       17.1260343774       14.5965177034
  C        38.1605657102       17.2619596049       15.3397992925
  C        35.1172704123       26.6464196675       15.3089366387
  C        35.1866413690       26.6617191720       12.4989207974
  C        26.5686919698       17.8312039141       10.3250635091
  C        25.2516963934       17.8888685885       11.0252743422
  C        24.9838325940       18.9125047490       11.9472112351
  C        23.7654285276       18.9488502094       12.6197590744
  C        22.7848900720       17.9611725668       12.3962115220
  C        23.0465920733       16.9628906825       11.4400604473
  C        24.2652583130       16.9250737002       10.7643140858
  C        21.5234500335       17.9529164482       13.1747570834
  C        21.5542132989       17.9696316044       14.5962948133
  C        22.7767506704       17.8664729405       15.3324004885
  C        14.0452903241       17.8284162446       10.2915202178
  C        15.3463602475       17.8876380639       11.0240320399
  C        15.6003347352       18.9025462052       11.9600668388
  C        16.8071065610       18.9328735656       12.6564661971
  C        17.7947649028       17.9507997624       12.4397862437
  C        17.5437071559       16.9565186886       11.4751078937
  C        16.3365103017       16.9223853847       10.7793725321
  C        19.0668541436       17.9513455148       13.2049590046
  C        19.0732804898       17.9749417136       14.6276411006
  C        17.8711046557       17.8847079755       15.3974777793
  C        46.8012362090       17.2174052737       10.1592953038
  C        45.5087960591       17.1500018504       10.9030859394
  C        45.3055658488       16.1720553636       11.8896451429
  C        44.1221065319       16.1462315617       12.6235925903
  C        43.1087751099       17.0980956168       12.3949351318
  C        43.3092268758       18.0551506374       11.3811662342
  C        44.4935758940       18.0850695493       10.6480185578
  C        41.8542422228       17.1041182789       13.1847629117
  C        41.8604161058       17.1103260266       14.6075404763
  C        43.0695681098       17.2073443024       15.3655408890
  C        20.3238329287       18.0032085698       15.3288610334
  C        20.2875155095       17.9241280606       12.5159521705
  C        46.7828160905       17.2311196365        5.8876810576
  C        45.4788272062       17.1239702221        5.1722730701
  C        45.2605308114       16.1265890248        4.2093422596
  C        44.0714007713       16.0975736883        3.4843633637
  C        43.0690595423       17.0628388359        3.7038067874
  C        43.2779942477       18.0297876313        4.7053606182
  C        44.4681710876       18.0652641241        5.4255873647
  C        41.8210383504       17.0840549424        2.9076080279
  C        41.8435513682       17.0989273299        1.4860125409
  C        43.0616273101       17.1988350285        0.7426106872
  C        46.1534804690       26.6372862317        0.7263263553
  C        46.1625267577       26.6559816124        3.5359872151
  C        14.0526642615       17.8405679454        5.7126766965
  C        15.3815898714       17.9398001897        5.0330322193
  C        15.6481694194       18.9715337727        4.1195495041
  C        16.8798470412       19.0354607673        3.4700254620
  C        17.8774073507       18.0674033381        3.7053003206
  C        17.6181653028       17.0652954333        4.6588810468
  C        16.3881730275       17.0012207755        5.3130066231
  C        19.1453097753       18.0645051044        2.9299006499
  C        19.1140208566       18.0315398317        1.5073378478
  C        17.8909710753       17.9097825623        0.7736448429
  C        28.8083810820       14.0819943605       10.3599018458
  C        28.2022252265       12.9114822380       11.0555286267
  C        28.9266494489       12.1780091810       12.0068335383
  C        28.3280861441       11.1078074650       12.6677265047
  C        26.9923146138       10.7454831499       12.3999630496
  C        26.2899497205       11.4595180491       11.4122100751
  C        26.8848576187       12.5311052104       10.7516344645
  C        26.3229722187        9.6672186437       13.1644710065
  C        26.3043435913        9.6974501481       14.5856543250
  C        26.8059404929       10.8115829381       15.3305923595
  C        32.1800245808       21.2437633692       10.1476650612
  C        32.7755031367       22.4104626288       10.8642589592
  C        32.0251696278       23.0980840573       11.8310327097
  C        32.5966612677       24.1367901397       12.5596169623
  C        33.9352374259       24.5182920272       12.3434672935
  C        34.6683870371       23.8505600475       11.3442430675
  C        34.0992609656       22.8056710177       10.6178631931
  C        34.5622340165       25.5918872266       13.1496526497
  C        34.5380280262       25.5620530056       14.5714717030
  C        34.0281721633       24.4424383289       15.3012799680
  C        25.6898960689        8.6222541558       15.3049869367
  C        25.6882945030        8.6146187912       12.4915320803
  C        32.0199893343       21.1584774840        5.7971357022
  C        32.5906214862       22.3282643361        5.0704783931
  C        31.8819805969       22.9663836667        4.0397728494
  C        32.4617448625       24.0214862677        3.3371101998
  C        33.7657777483       24.4662399171        3.6382063586
  C        34.4517659544       23.8420279104        4.6985998212
  C        33.8769190465       22.7874126326        5.4013621705
  C        34.4197952535       25.5534780465        2.8713213218
  C        34.4657508318       25.5419471238        1.4488123788
  C        33.9941339476       24.4329888141        0.6775959087
  C        40.6050713630       17.1016389976        0.7637264292
  C        40.5906164040       17.1085991366        3.5739393152
  C        28.7142531576       14.0927330328        5.8180855786
  C        28.0967520919       12.9510277432        5.0824260975
  C        28.8327859339       12.2524096177        4.1119343329
  C        28.2520255200       11.1970076682        3.4137353794
  C        26.9189623807       10.8105956199        3.6595157323
  C        26.1995621429       11.4967602410        4.6566061017
  C        26.7780538736       12.5545060455        5.3565258018
  C        26.2824521175        9.7166767823        2.8858885630
  C        26.2843288227        9.7234097130        1.4633071867
  C        26.7931925637       10.8256029651        0.7067018310
  C        18.1353920906        3.1809533098       10.3171417367
  C        17.4061386185        4.2782031337       11.0157734192
  C        16.3905163275        3.9998899078       11.9434213354
  C        15.7428229614        5.0399063640       12.6068992025
  C        16.0946273186        6.3836373128       12.3670669971
  C        17.0838726388        6.6530880237       11.4031382055
  C        17.7329594691        5.6157245385       10.7381118101
  C        15.4703356241        7.4913837070       13.1300925711
  C        15.4857587323        7.4907896200       14.5518079225
  C        16.1874628603        6.4972743619       15.3049720825
  C        42.9457648910       31.8594722926       10.0728475947
  C        43.6460445065       30.7718016024       10.8167797618
  C        44.5914789800       31.0931062311       11.8029729966
  C        45.1971529760       30.0875492927       12.5506394657
  C        44.8708066721       28.7344547770       12.3357531879
  C        43.9451039901       28.4201370647       11.3223975512
  C        43.3363464665       29.4252818191       10.5743102829
  C        45.4884305131       27.6551696132       13.1389483377
  C        45.4928464705       27.6809443396       14.5606472960
  C        44.8059310736       28.6890589875       15.3073345829
  C        14.8567563911        8.5632691725       15.2641705439
  C        14.8749238999        8.5630804243       12.4514962387
  C        42.9465387419       31.9615685261        5.8089704715
  C        43.6918453276       30.8854789316        5.0956607121
  C        44.6563994006       31.1914013600        4.1232932497
  C        45.2779536244       30.1718180589        3.4056045117
  C        44.9542927543       28.8214582586        3.6432749649
  C        44.0209012392       28.5237957606        4.6541587979
  C        43.3925971037       29.5405448930        5.3663296661
  C        45.5633090163       27.7240705760        2.8579803021
  C        45.5336331069       27.7174784076        1.4366725110
  C        44.8273317886       28.7077290149        0.6837272752
  C        35.0833253898       26.6351360783        0.7545241183
  C        35.0245845985       26.6112483164        3.5650289778
  C        18.1487043236        3.2469863686        5.7066203853
  C        17.4301183224        4.3438494677        4.9973491312
  C        16.4150273639        4.0526576872        4.0736173041
  C        15.7667559298        5.0833055703        3.3982102458
  C        16.1213391950        6.4285457779        3.6210570782
  C        17.1126482237        6.7118698814        4.5784099399
  C        17.7602730104        5.6829241409        5.2581797788
  C        15.4908409465        7.5242717892        2.8486321303
  C        15.4968234299        7.5077171382        1.4274953205
  C        16.1937076653        6.5061094394        0.6807864291
  H        10.6725515528       12.4662019804        3.9043635768
  H        11.6946681966       10.5514176366        2.6624612658
  H        15.3913709653       11.1680604855        4.7729184216
  H        14.3509558927       13.0709199917        6.0181483134
  H        13.3760768454       11.6312004374        1.2013002603
  H        50.3229987414       22.7486810485        3.9872880231
  H        49.3198494758       24.6231885403        2.6813055273
  H        45.6417883471       24.1601878516        4.8629573962
  H        46.6626576517       22.2892670655        6.1711338032
  H        47.6297211421       23.5757896100        1.2462062740
  H        14.8720510833        8.5882636141        4.6085368486
  H        50.2871319237       22.7032722603       12.0596894471
  H        49.2690340670       24.5760766242       13.3597672488
  H        45.6096060677       24.1078292856       11.1471275849
  H        46.6517702922       22.2525847023        9.8329225479
  H        47.6075331173       23.5517279057       14.7968508229
  H        40.6331739238       17.0682385277       11.4207025257
  H        48.6867513388       14.0949803606        7.7998795271
  H        10.6815386801       12.4673097027       12.0937472719
  H        11.6896937453       10.5254159574       13.2974824780
  H        15.3929898659       11.1580367596       11.2044080160
  H        14.3644245308       13.0864004546        9.9889567060
  H        13.3757531569       11.6221964087       14.7531086052
  H        47.9300041302       14.2183642586        9.7109204333
  H        47.7798310445       14.3728970061        6.4947592947
  H        49.0823514379       18.5516740500       10.8669031507
  H        10.4156808046       14.1344798394        7.9986328059
  H        24.4863234122        3.0427120384        3.9132651865
  H        25.6161515070        4.9093707531        2.6900210378
  H        23.2233308923        7.7602321119        4.8455075171
  H        22.1127277186        5.8841883655        6.0711780904
  H        23.8027282514        5.8041740197        1.2628407512
  H        36.3440794654       32.1862719686        3.9934595844
  H        35.1891773916       30.3694495810        2.7354851741
  H        37.4537265171       27.4329760232        4.9148582876
  H        38.5886954985       29.2630558798        6.1830538729
  H        36.9660916300       29.4552254704        1.3179474578
  H        25.6991032198        8.6395148006        4.6507522114
  H        36.4545528115       32.2446346436       12.1136093704
  H        35.3441436430       30.4331312643       13.4170649088
  H        37.5565190437       27.4891968263       11.1925181396
  H        38.6401570851       29.3123883161        9.8749674200
  H        37.0156072779       29.4784317548       14.8714233517
  H        46.1086596326       26.5871657820       11.3856269563
  H        44.6683831323       35.1162091866        7.8138780514
  H        24.4365198659        3.0405827626       12.0899686175
  H        25.5700970581        4.8790133072       13.3391742244
  H        23.1769594527        7.7694936576       11.2382084225
  H        22.0546417581        5.9190472672        9.9891881009
  H        23.7927489930        5.7986081637       14.8143639601
  H        44.9541609734       34.3906553293        9.6952936482
  H        44.9020708913       34.2070644348        6.4903720147
  H        40.6668414489       33.2093363916       10.8532080176
  H        23.1504437974        1.9580019961        8.0049342570
  H        25.9250726835       19.6732189811        3.8041606160
  H        23.7325317611       19.7807709200        2.6232592498
  H        22.3532898408       16.3872495219        4.8782461571
  H        24.5409727407       16.3062395558        6.0711888934
  H        23.7414957007       17.7790023312        1.2316876776
  H        35.0934988090       15.5100962422        3.9429601609
  H        37.2176775525       15.4471661196        2.6391466640
  H        38.7179663220       18.7569234887        4.9435224716
  H        36.5937671222       18.7936865779        6.2582183686
  H        37.2134348986       17.4075150392        1.2442243714
  H        20.3968980969       18.1152004708        4.6751858813
  H        35.1301454430       15.4753469111       12.1405122217
  H        37.2671700695       15.4047244620       13.4217826163
  H        38.7427665941       18.7358536721       11.1329685386
  H        36.6036429186       18.7844051747        9.8435916547
  H        37.2267592649       17.3956565203       14.8010053810
  H        35.1734691713       26.6888206879       11.4109780359
  H        28.5114755943       21.0958995070        7.9979447813
  H        25.7437578144       19.6718025620       12.1179537957
  H        23.5582851121       19.7467377867       13.3297054325
  H        22.2987737656       16.1930855795       11.2606705652
  H        24.4820591916       16.1415068098       10.0421289619
  H        23.7047854246       17.7304049336       14.7852216582
  H        29.0240039704       21.7130736059        9.7545067076
  H        29.0744986513       21.7855307332        6.5909301397
  H        32.0474806508       18.5691147316       11.0080091983
  H        27.3949731777       19.0869970664        8.0853515525
  H        14.8419047743       19.6645647029       12.1250264884
  H        17.0005246146       19.7281313708       13.3732064984
  H        18.2947294209       16.1888903717       11.2998958759
  H        16.1328114186       16.1430474182       10.0487607182
  H        16.9256763327       17.7606878520       14.8772796114
  H        46.0924738467       15.4447040026       12.0750768067
  H        43.9682546862       15.3794161835       13.3796869438
  H        42.5365962642       18.7990596437       11.1980262096
  H        44.6613982898       18.8394618495        9.8828128811
  H        44.0111099683       17.3195922466       14.8355894411
  H        20.2743779369       17.9333065956       11.4275028055
  H        46.0384269943       15.3878010920        4.0303180781
  H        43.9065191926       15.3229031346        2.7386279224
  H        42.5102030834       18.7800086788        4.8827650729
  H        44.6486153317       18.8314299703        6.1756363035
  H        43.9972337935       17.3033044337        1.2843620606
  H        46.1992904206       26.6823884209        4.6234385371
  H        52.7408106521       21.0625777101        8.1946265774
  H        14.8787292364       19.7175809064        3.9331284335
  H        17.0799826544       19.8387093122        2.7640054721
  H        18.3769953088       16.3095806363        4.8515522357
  H        16.1773815122       16.2129350979        6.0319000673
  H        16.9605674643       17.8051362464        1.3236448584
  H        52.3213038161       21.6728017604        6.2946698012
  H        52.0125162578       21.7014188517        9.4956875493
  H        49.0669950900       18.6069991801        5.2043189536
  H        13.2472347713       19.0173408955        7.9786202060
  H        29.9555133699       12.4611622242       12.2175366294
  H        28.8917154951       10.5398584384       13.4047640637
  H        25.2577908708       11.1902091541       11.1977346341
  H        26.3388351973       13.1039071721       10.0061468807
  H        27.1767313688       11.6769938198       14.7895340551
  H        30.9967808554       22.7935307072       12.0085231922
  H        32.0091280218       24.6661045315       13.3065587399
  H        35.7046737085       24.1336037140       11.1711032919
  H        34.6737300670       22.2645401940        9.8695790661
  H        33.6907513396       23.5688106475       14.7507203814
  H        25.7218244279        8.5929815378       11.4036615807
  H        30.8822149563       22.6161090460        3.7921794412
  H        31.9028320299       24.5161422506        2.5458244285
  H        35.4604640074       24.1701130693        4.9408733700
  H        34.4166844591       22.2875203804        6.2019814731
  H        33.6318687913       23.5502736799        1.1963999807
  H        40.5857033202       17.0672362484        4.6615122329
  H        32.5161177882       14.1550278426        8.2481208597
  H        29.8621408075       12.5468987643        3.9211005667
  H        28.8323992602       10.6533162937        2.6714810800
  H        25.1681340059       11.2120898624        4.8543329826
  H        26.2175467180       13.0982207269        6.1134231348
  H        27.1525444274       11.7025737347        1.2371102094
  H        33.2919802435       14.1870163343        6.4309019157
  H        33.4069017481       14.3888255205        9.6088207008
  H        32.0927200441       18.5307135028        5.1162898005
  H        30.2378822364       14.1977317631        8.0816003153
  H        16.1185216233        2.9633948237       12.1299640303
  H        14.9534552953        4.8205552617       13.3226596356
  H        17.3662235981        7.6859570730       11.2098831107
  H        18.5149300526        5.8183541423       10.0101880633
  H        16.7541035267        5.7399974557       14.7714714286
  H        44.8277685758       32.1401728000       11.9772306329
  H        45.9369660858       30.3413248355       13.3066273162
  H        43.6824951036       27.3780598438       11.1521859811
  H        42.5999582710       29.1898648181        9.8094503258
  H        44.2305411541       29.4368442038       14.7690986281
  H        14.8509882800        8.5462101216       11.3632804492
  H        44.8998976850       32.2340749177        3.9317514139
  H        46.0247973424       30.4130853327        2.6523190105
  H        43.7640095643       27.4840576188        4.8457832141
  H        42.6461793544       29.3176451902        6.1248231725
  H        44.2689033452       29.4706720462        1.2183099696
  H        34.9659221209       26.6241454939        4.6518646630
  H        36.6053628570       35.1339864151        8.1807136831
  H        16.1439606227        3.0130908002        3.9038117057
  H        14.9744931031        4.8564837548        2.6880479157
  H        17.3961083721        7.7473340027        4.7553910182
  H        18.5430760307        5.8933756771        5.9830226427
  H        16.7652427257        5.7559416213        1.2192180388
  H        36.2791247327       34.4820886382        6.2729588882
  H        36.3813469234       34.2088320598        9.4993960693
  H        40.5788337083       33.2016668122        5.1542595062
  H        17.4713252070        1.9470594635        7.9740265175
  H        29.4976402571       19.6668055379       12.6381051934
  H        30.7853277204       15.4132978256        3.7722195251
  H        30.9197681252       15.5738489670       12.4730764444
  H        28.1771860064       18.3617482631       14.6112638455
  H        29.1847585553       15.7844807103       14.6710005549
  H        31.4688173674       19.4938905779        1.8299696807
  H        29.1927369850       15.7786572689        1.5525051929
  H        32.1878033019       17.4896839827       14.2656400522
  H        18.8542581219        0.8691663034       12.3352587643
  H        40.5281310533       35.2287228639        3.9520227451
  H        42.3242187617       34.4188488166        3.5904844372
  H        22.0879810414        0.6918657986       12.3515483413
  H        11.5969011942       18.7128567486       12.3819928997
  H        52.2648658970       18.4305377210        3.6772144712
  H        49.2549741226       16.4769722303        3.5846557512
  H        10.1492601147       15.7982413949       12.2932959514
  H        50.8497617086       17.6923694063        3.9543529656
  H        10.0455711112       17.3945576200       12.0520295489
  H        20.2158255858        0.0024189144       12.0418175729
  H        39.1837696842       36.1244670553        3.6866098524
 Ni        30.6055990178       17.3751752800        2.5744919029
 Ni        30.9846110073       16.6237409374        0.0874437489
 Ni        29.8868612556       18.7183609807        0.3329725889
 Ni        29.9755113997       17.4993814166       13.2412129298
  O        10.6500001420       14.3651658983        5.4858648319
  O        12.6133217662       14.6577575347        6.5839037900
  O        49.1476424139       16.8459583931        7.9897200172
  O        50.3502714231       20.9355877614        5.6480177760
  O        48.3485405962       20.5932172901        6.6659619335
  O        11.0516085234       17.0536563828        6.5007676517
  O        50.3209195814       20.8816717577       10.4067792213
  O        48.3466956662       20.5866752196        9.3270482586
  O        49.5434699502       18.2483445007       10.0681586969
  O        12.3593080166       18.6243110388        7.9994281817
  O        48.6931904809       14.1486674491        6.7512273956
  O         8.2097770520       14.2105362078        9.3226052437
  O        10.7353498614       14.5067972660       10.6643187648
  O        12.5718617086       14.5830217460        9.3283610857
  O        22.8448450012        2.0445826545        5.4867382712
  O        21.6052726245        3.5923141631        6.5900711024
  O        42.0580321749       34.1372552041        7.9788551758
  O        37.9810058689       33.1351291598        5.5717764892
  O        39.2167213936       31.5744984176        6.6649587416
  O        20.3084659304        1.0396237148        6.5021044349
  O        38.0245393001       33.1852411723       10.4156965368
  O        39.2183587711       31.5829757054        9.3275077941
  O        40.6522092983       33.7691995832       10.0600173223
  O        18.2559119056        1.3757436069        7.9967618640
  O        44.6221518036       35.1006308994        6.7587129617
  O        24.2053959515        0.0000238910        9.3207612553
  O        22.7533039681        2.0581600918       10.5841696647
  O        21.6249559626        3.5966227237        9.3437100113
  O        27.6320314373       18.6893076934        5.4109564774
  O        26.7386691216       17.0036614639        6.6577481657
  O        30.6553229427       19.4109762212        8.0789475344
  O        33.5446245804       16.3352646773        5.6597907436
  O        34.2670180190       18.1927279043        6.7413213176
  O        29.5669025520       17.0686175248        6.5866593044
  O        33.5485721287       16.3416725025       10.4185838213
  O        34.3006846807       18.2388213833        9.4088579876
  O        31.6501800824       18.3157357006       10.1571087463
  O        30.3236457497       15.1653433253        8.0797424802
  O        28.5497812444       21.0329680589        6.9136274109
  O        28.5176064038       20.9559403796        9.4122843642
  O        27.4596723095       18.6791010481       10.6619689308
  O        26.6920441784       16.9312918848        9.4154314611
  O        13.1476760527       18.6935130884       10.5873264295
  O        13.9205199364       16.9167149330        9.4064430312
  O        50.5956748830       19.3499547349        8.0199833202
  O        47.6818383653       16.3274885292       10.4176790853
  O        46.9498081665       18.1755413818        9.3259769780
  O        11.0699749059       17.0152031995        9.4893916078
  O        47.6746354482       16.3359354257        5.6526686705
  O        46.9254862357       18.2357460689        6.6635605748
  O        49.5688990099       18.3176325269        5.9823282248
  O        10.3186241128       15.1003653642        7.9970829643
  O        52.6707007032       21.0278512431        9.2418106386
  O        12.1468095748       20.8911032432        6.6731757711
  O        13.1099408083       18.6141591073        5.3253454101
  O        13.9607148815       16.9885462660        6.6626627608
  O        30.0000249024       14.4301278760       10.6614277586
  O        28.0779871763       14.6579828779        9.4828460474
  O        32.0933332083       16.9078213149        8.0707731589
  O        30.9646292011       20.9535722499       10.4099172954
  O        32.9447593961       20.6031508853        9.3390329474
  O        29.5573999911       17.0886068978        9.5715594537
  O        30.8086344935       20.7984403024        5.5021255669
  O        32.7762555196       20.5900158756        6.6511028028
  O        31.6012522605       18.2508191988        5.9066075933
  O        28.2785770820       18.6831436034        8.0852044430
  O        32.4905250143       14.2155854325        9.3264834018
  O        32.4031730235       14.2203099993        6.8219299904
  O        29.9028843981       14.4329812040        5.4986157566
  O        28.0067711080       14.6465608787        6.7367660378
  O        17.8892493167        1.9665739746       10.6628031168
  O        18.9562700690        3.5271027674        9.4079873380
  O        39.1685922426       34.1385423286        7.9970548126
  O        43.2801280891       33.0589328106       10.3316491415
  O        42.0342763238       31.5065131480        9.2415600804
  O        20.3177568204        1.0367161670        9.4801639531
  O        43.2760328327       33.1825963129        5.5749161708
  O        42.0052004655       31.5841491686        6.5829718028
  O        40.5790243589       33.7750305526        5.9358980936
  O        22.3673802391        1.3846687440        7.9979291104
  O        36.6728198942       35.0996764954        9.2333310253
  O        16.4457837935        0.0640768531        6.6681547393
  O        17.9364791845        2.0433660194        5.3264172284
  O        18.9190541427        3.5931107271        6.6660296415
  O        29.8976740875       18.9876281316       12.0643277547
  O        31.1373111197       16.2646704559        4.0978390948
  O        31.0507964582       16.4285936800       12.0166882841
  O        30.1671080392       15.7551879782        1.5761672755
  O        30.0893646165       16.0339954521       14.4124603380
  O        32.2454823381       17.5875327832       15.2366136955
  O        30.5550685528       19.1931620289        2.0007756527
  O        29.1194162960       18.6049658209       14.5877562619
  O        39.4567913314       35.2437373931        4.0019987893
  O        19.1422127190        0.0047642305       11.9904156317
  O        41.9693514884       35.1724323837        4.0872121157
  O        21.6913584094       -0.0694299143       11.8958544087
  O        51.3652286804       18.6141720845        4.0055118629
  O        10.7509354998       18.7471737740       11.9047859380
  O        50.0795230940       16.4128974842        4.0918130679
  O         9.5238300175       16.4831965977       11.9911658154
 Zr         9.2958396773       16.0528390247        6.1823860217
 Zr        49.8354556921       16.0067957706        9.7465762509
 Zr        22.0734670709        0.0300904893        6.1888579180
 Zr        42.4611675919       35.1535453006        9.8008578514
 Zr        29.6114727443       19.1017277787        6.3909765166
 Zr        29.5720795140       19.1613147726        9.9244262419
 Zr        11.0370174981       19.0517441748        9.8272973216
 Zr        11.0435916399       19.1544880725        6.2509977092
 Zr        31.3345062164       16.1028110801        9.8818552439
 Zr        31.3752136508       16.0125086421        6.2457518715
 Zr        18.6013669538       -0.0013757515        9.7634904338
 Zr        18.5068895805       -0.0078645432        6.2135401971
 Zr        12.3023411040       16.3238108129        7.9895120830
 Zr        48.6146556278       18.8325938875        8.0102791728
 Zr        20.3156275228        2.4738298097        7.9908662901
 Zr        40.6433389904       32.6868096754        7.9777096654
 Zr        28.3334711709       16.3447766078        8.0846958427
 Zr        32.6445745004       18.8340903403        8.0671379002
