     571
 i =      220, E =     -4761.6180741146
  C        11.8588492988       14.0535473119        5.7416324853
  C        12.4563622094       12.8905659855        5.0234630604
  C        11.7046964815       12.1717989734        4.0816437134
  C        12.2810555578       11.1096433193        3.3892157558
  C        13.6215594227       10.7396620098        3.6170990100
  C        14.3546491219       11.4430218328        4.5907851607
  C        13.7818014547       12.5079844047        5.2823627316
  C        14.2611185030        9.6490563109        2.8436374365
  C        14.2564961630        9.6570277062        1.4219318393
  C        13.7434094965       10.7591906117        0.6680268504
  C        49.1268844035       21.2330505022        5.8795227903
  C        48.5502212900       22.4010202993        5.1524658766
  C        49.3003059222       23.0684142965        4.1715501882
  C        48.7334331085       24.1076321414        3.4384158679
  C        47.4028915415       24.5093035912        3.6670283149
  C        46.6718737314       23.8603607663        4.6804512341
  C        47.2342752498       22.8153864075        5.4097397557
  C        46.7726418902       25.5870228168        2.8697793425
  C        46.7616349456       25.5574513057        1.4480155811
  C        47.2615550678       24.4423638911        0.7045041031
  C        14.8604877872        8.5707228346        0.7086532865
  C        14.8918276156        8.5970489776        3.5202663544
  C        49.1132185579       21.2034792793       10.1453757592
  C        48.5278370728       22.3648053706       10.8725215084
  C        49.2670652149       23.0256268279       11.8653725380
  C        48.6906947454       24.0601786422       12.5968027278
  C        47.3602241317       24.4568379133       12.3586534406
  C        46.6397886726       23.8117906152       11.3352309192
  C        47.2133847342       22.7758955737       10.6034664797
  C        46.7217520378       25.5318038621       13.1496752745
  C        46.7336426703       25.5282156651       14.5713795830
  C        47.2491751965       24.4290356202       15.3277445793
  C        40.6322377015       17.1437927933       15.3287440153
  C        40.6528758488       17.1832815434       12.5199246759
  C        11.8830720539       14.0866624312       10.2853512180
  C        12.4724960330       12.9108877880       10.9895982406
  C        11.7151260366       12.1779100667       11.9160032288
  C        12.2817279992       11.0954759478       12.5844391932
  C        13.6204481997       10.7215183928       12.3523869263
  C        14.3582309065       11.4367989664       11.3912111865
  C        13.7927810208       12.5179402783       10.7184805306
  C        14.2540618910        9.6247909469       13.1228290028
  C        14.2527983469        9.6447659404       14.5446766622
  C        13.7429334347       10.7537084776       15.2917694305
  C        22.5107047240        3.2441815623        5.7521124484
  C        23.2227738575        4.3494485442        5.0499935395
  C        24.2185165477        4.0693879727        4.1025515256
  C        24.8437331671        5.1088455024        3.4187705777
  C        24.4886510745        6.4505341132        3.6620796218
  C        23.5205901083        6.7221174502        4.6460832343
  C        22.8909245876        5.6844964991        5.3284368425
  C        25.0947671203        7.5570330730        2.8868452779
  C        25.0717274576        7.5498615208        1.4651697156
  C        24.3711292968        6.5507880612        0.7174004625
  C        38.2946261738       31.9263844592        5.8533690896
  C        37.5452742584       30.8373048568        5.1577642081
  C        36.5755112944       31.1445100325        4.1903180761
  C        35.9386045162       30.1274147157        3.4834490187
  C        36.2545126457       28.7745639498        3.7190039903
  C        37.1919949221       28.4748077836        4.7259695057
  C        37.8330106279       29.4910117131        5.4324328843
  C        35.6442692320       27.6870045181        2.9158597978
  C        35.6953736682       27.7026823276        1.4935641777
  C        36.4091074837       28.7065270058        0.7653420992
  C        25.6975889866        8.6193367091        0.7467648881
  C        25.6892810680        8.6322966588        3.5591813520
  C        38.3320232676       31.9613913514       10.1618278099
  C        37.6186803401       30.8895186770       10.9152858749
  C        36.6854929371       31.2006177658       11.9164260060
  C        36.0771729450       30.1849661064       12.6521493396
  C        36.3870958496       28.8313278792       12.4111550157
  C        37.3026626278       28.5301494440       11.3838338913
  C        37.9125193972       29.5422203816       10.6490391589
  C        35.7708841355       27.7325656914       13.1912630414
  C        35.7593419220       27.7266432252       14.6139999284
  C        36.4377278471       28.7193563431       15.3886247674
  C        46.1356292045       26.6208334575       15.2815390185
  C        46.0876257535       26.5800807006       12.4736426577
  C        22.4618696406        3.2562769656       10.2570428827
  C        23.1580773507        4.3654257071       10.9777459520
  C        24.1634610146        4.0799600493       11.9152667780
  C        24.7932286945        5.1104679221       12.6092331482
  C        24.4378026662        6.4562759783       12.3886790844
  C        23.4556927656        6.7350599526       11.4193535701
  C        22.8214626080        5.7048131737       10.7256496072
  C        25.0686042056        7.5544044160       13.1634712274
  C        25.0586102558        7.5482043645       14.5861873595
  C        24.3630174683        6.5512654029       15.3405728026
  C        26.6792805157       17.8760436416        5.7314503842
  C        25.3775061183       17.9660801232        5.0026996120
  C        25.1412688804       18.9440232951        4.0235835285
  C        23.9139312966       18.9950485569        3.3616386967
  C        22.8883893615       18.0695381156        3.6498273395
  C        23.1244558637       17.1165607626        4.6592002750
  C        24.3479931159       17.0632392663        5.3222128556
  C        21.6064674583       18.0591483743        2.8982957956
  C        21.5962643379       18.0127764197        1.4758801035
  C        22.7960765950       17.8708831634        0.7092024236
  C        34.4358921025       17.2000435287        5.9196863938
  C        35.7309332313       17.1474375235        5.1838028793
  C        35.9213694051       16.1977595313        4.1676078641
  C        37.1014302271       16.1856802018        3.4301523151
  C        38.1222199934       17.1213484249        3.6889233272
  C        37.9343384318       18.0489403412        4.7314265175
  C        36.7514472299       18.0674673472        5.4663770488
  C        39.3754699190       17.1314519729        2.9020053134
  C        39.3721312898       17.1582619035        1.4803750263
  C        38.1670715431       17.2998376377        0.7223228695
  C        20.3446827350       18.0163947304        0.7753909944
  C        20.3838393878       18.0619618840        3.5882208448
  C        34.4778408086       17.2499304498       10.1834323030
  C        35.7773512397       17.1860015965       10.9113149755
  C        35.9916539266       16.2051670505       11.8911937389
  C        37.1762022603       16.1920491240       12.6215763937
  C        38.1748322965       17.1576003182       12.3894034260
  C        37.9661209970       18.1144906637       11.3792353972
  C        36.7785527953       18.1339186366       10.6529387968
  C        39.4217350511       17.1747211469       13.1841621498
  C        39.3962787950       17.1809983238       14.6048807013
  C        38.1785862503       17.3084860670       15.3453564589
  C        35.1218544934       26.6455424365       15.3092274259
  C        35.1901146057       26.6614558279       12.4994510457
  C        26.5673232159       17.8287870763       10.3230819476
  C        25.2499073521       17.8805473023       11.0250009584
  C        24.9813411671       18.8993110577       11.9520193610
  C        23.7634896697       18.9307559351       12.6258661983
  C        22.7839271549       17.9432405396       12.3977531870
  C        23.0462973565       16.9496779955       11.4369630990
  C        24.2647945643       16.9164942388       10.7605260425
  C        21.5224958736       17.9319167563       13.1760271060
  C        21.5532435618       17.9465029448       14.5975125557
  C        22.7755337815       17.8401499126       15.3335830949
  C        14.0452904888       17.8275145938       10.2919887538
  C        15.3458549973       17.8836119435       11.0249960041
  C        15.6011585372       18.8952851616       11.9641308290
  C        16.8078625624       18.9214488293       12.6607811532
  C        17.7940503731       17.9384368485       12.4413318037
  C        17.5417008845       16.9476827168       11.4733883949
  C        16.3347037715       16.9176701519       10.7773630020
  C        19.0659960093       17.9346185919       13.2064104125
  C        19.0724427570       17.9573567524       14.6290458625
  C        17.8702426376       17.8695796112       15.3990358520
  C        46.8058265497       17.2205066423       10.1605529775
  C        45.5180918168       17.1645066589       10.9101548678
  C        45.3107239933       16.1896141385       11.8982101842
  C        44.1309127757       16.1780765979       12.6375620973
  C        43.1289176730       17.1418851858       12.4109841019
  C        43.3340060338       18.0969492467       11.3969061954
  C        44.5141953404       18.1121769374       10.6583853262
  C        41.8761916736       17.1588874366       13.1998183308
  C        41.8800409017       17.1519250589       14.6216637851
  C        43.0884844178       17.2353232982       15.3822418606
  C        20.3230814814       17.9832472137       15.3300920404
  C        20.2865342266       17.9062430862       12.5172325117
  C        46.7852367717       17.2293128587        5.8917379524
  C        45.4801745089       17.1195865764        5.1815384879
  C        45.2620806340       16.1216858259        4.2196835934
  C        44.0731956604       16.0942374947        3.4951038002
  C        43.0737529610       17.0614061940        3.7163740717
  C        43.2811075539       18.0270660721        4.7189040443
  C        44.4711837386       18.0612094967        5.4381558298
  C        41.8291854609       17.0891006459        2.9178831016
  C        41.8561731620       17.1140964649        1.4973401560
  C        43.0771191374       17.2149025157        0.7587380618
  C        46.1535120135       26.6372914171        0.7262973894
  C        46.1626429034       26.6561021256        3.5359473645
  C        14.0528017614       17.8404860407        5.7126548481
  C        15.3816045517       17.9389509333        5.0333782586
  C        15.6476943142       18.9674805496        4.1161351066
  C        16.8795215002       19.0298591377        3.4668289333
  C        17.8776603184       18.0633584233        3.7061325428
  C        17.6190531325       17.0649673405        4.6637360874
  C        16.3889472903       17.0023923211        5.3175411638
  C        19.1453171870       18.0570709959        2.9307272410
  C        19.1135800782       18.0191578535        1.5083544445
  C        17.8903270219       17.8970203544        0.7751425922
  C        28.8039561585       14.0836278459       10.3589422152
  C        28.1941475189       12.9161307499       11.0574564918
  C        28.9158356258       12.1923978959       12.0178387637
  C        28.3197963774       11.1194221249       12.6759638725
  C        26.9881812819       10.7480198830       12.3999401430
  C        26.2877910240       11.4551275153       11.4058835818
  C        26.8814696524       12.5274450276       10.7452196293
  C        26.3211455953        9.6679126251       13.1629953609
  C        26.3071113034        9.6931577601       14.5843162446
  C        26.8125481919       10.8040197405       15.3318585715
  C        32.1820701887       21.2480690336       10.1406126713
  C        32.7814830452       22.4131475089       10.8582848395
  C        32.0355345309       23.0884395698       11.8367820348
  C        32.6071577849       24.1256265949       12.5674378777
  C        33.9415697149       24.5167168641       12.3425603588
  C        34.6702605756       23.8600463930       11.3327272636
  C        34.1006935529       22.8170937990       10.6035123953
  C        34.5683655291       25.5896180491       13.1496098252
  C        34.5459673638       25.5594338730       14.5716007653
  C        34.0398810302       24.4383720549       15.3018185120
  C        25.6953396831        8.6152341822       15.3018301468
  C        25.6851818025        8.6167245783       12.4888851669
  C        32.0194179763       21.1609761836        5.7969497302
  C        32.5889349151       22.3316622202        5.0721892436
  C        31.8840921395       22.9627611672        4.0345074099
  C        32.4640761203       24.0172598211        3.3313096812
  C        33.7645766816       24.4683273764        3.6384745949
  C        34.4465442278       23.8510098571        4.7056715341
  C        33.8714888392       22.7970823992        5.4091038166
  C        34.4189420402       25.5550331366        2.8715600634
  C        34.4694710686       25.5415447429        1.4491421926
  C        34.0037698839       24.4300295016        0.6780938887
  C        40.6195446777       17.1279784310        0.7729797403
  C        40.5983763290       17.1139562013        3.5820603207
  C        28.7331502699       14.0661848669        5.8184717976
  C        28.1242150806       12.9201079441        5.0818896915
  C        28.8647778359       12.2127305885        4.1219278194
  C        28.2828934964       11.1589019174        3.4216368019
  C        26.9451403217       10.7834181923        3.6579935522
  C        26.2220960203       11.4761993106        4.6472029727
  C        26.8014956924       12.5322336438        5.3478551278
  C        26.3045430808        9.6936553307        2.8831977599
  C        26.3013782624        9.7057578490        1.4613337254
  C        26.8087238652       10.8106025387        0.7079518033
  C        18.1353982822        3.1808990026       10.3171464272
  C        17.4060806044        4.2781919368       11.0157346210
  C        16.3903800159        3.9999054282       11.9432867902
  C        15.7426927903        5.0399320760       12.6067626029
  C        16.0946923870        6.3836330107       12.3670995835
  C        17.0840580727        6.6530861355       11.4032998957
  C        17.7331069421        5.6156966983       10.7382716864
  C        15.4704141416        7.4913900013       13.1301220773
  C        15.4857173598        7.4907222243       14.5518391466
  C        16.1872308585        6.4970823001       15.3050158926
  C        42.9457824981       31.8594967642       10.0727499170
  C        43.6460120722       30.7718033868       10.8168291056
  C        44.5915859664       31.0931037201       11.8028766974
  C        45.1971887468       30.0875510995       12.5506204818
  C        44.8707954712       28.7344787676       12.3357358167
  C        43.9449005081       28.4201610919       11.3225738573
  C        43.3362027416       29.4253095224       10.5744320642
  C        45.4884103158       27.6551928379       13.1389437606
  C        45.4927732722       27.6808885358       14.5606417330
  C        44.8056970911       28.6889122138       15.3073048191
  C        14.8567614012        8.5632191237       15.2642141238
  C        14.8751936740        8.5631991986       12.4515398689
  C        42.9464482770       31.9615669998        5.8089549152
  C        43.6917033497       30.8854408805        5.0955289893
  C        44.6564414767       31.1913639678        4.1233630464
  C        45.2780080208       30.1717801565        3.4056699322
  C        44.9541578178       28.8214516071        3.6431831386
  C        44.0205053924       28.5237801461        4.6538048915
  C        43.3921740870       29.5405351836        5.3659570276
  C        45.5632562403       27.7240711387        2.8579242764
  C        45.5335279795       27.7174163717        1.4366225262
  C        44.8270825496       28.7075796120        0.6836985749
  C        35.0861331963       26.6352197023        0.7548343973
  C        35.0204099813       26.6147485008        3.5652157409
  C        18.1486543185        3.2469548166        5.7066224454
  C        17.4300280996        4.3438272006        4.9973572177
  C        16.4148484326        4.0525713697        4.0737559725
  C        15.7665297938        5.0832058939        3.3983712509
  C        16.1211940818        6.4284353980        3.6211083780
  C        17.1125503183        6.7118100988        4.5783908505
  C        17.7602234743        5.6828865580        5.2581481900
  C        15.4907123962        7.5241551713        2.8486699939
  C        15.4966530265        7.5075780274        1.4275320056
  C        16.1934325690        6.5058900263        0.6808302416
  H        10.6726274914       12.4660676382        3.9045074803
  H        11.6947974094       10.5513029587        2.6625439272
  H        15.3916281458       11.1683014161        4.7726287065
  H        14.3512709389       13.0711496216        6.0178402970
  H        13.3763645350       11.6312960115        1.2013459990
  H        50.3230113980       22.7483706952        3.9868078140
  H        49.3199464123       24.6229294319        2.6808817083
  H        45.6423562962       24.1610855480        4.8635685409
  H        46.6631700499       22.2901051185        6.1717354477
  H        47.6301086057       23.5759797246        1.2461666799
  H        14.8721157010        8.5882418367        4.6085716816
  H        50.2871539566       22.7028919287       12.0602409383
  H        49.2690887701       24.5757298736       13.3602391896
  H        45.6103305567       24.1088989320       11.1462463612
  H        46.6525157707       22.2536573129        9.8319884257
  H        47.6078888289       23.5518880424       14.7968507960
  H        40.6590490411       17.1532721736       11.4320477515
  H        48.6870816755       14.0948728932        7.8000081142
  H        10.6817159571       12.4670991273       12.0935625173
  H        11.6899974010       10.5252343875       13.2973079875
  H        15.3935588622       11.1587013560       11.2050144810
  H        14.3649735929       13.0870107592        9.9895956749
  H        13.3761477160       11.6223553336       14.7531589347
  H        47.9301425182       14.2186219165        9.7108713616
  H        47.7801579199       14.3737973804        6.4952023143
  H        49.0843134591       18.5525619866       10.8675217799
  H        10.4163124143       14.1343557775        7.9986914527
  H        24.4803919369        3.0308627294        3.9126545278
  H        25.6165051584        4.8914759263        2.6846107117
  H        23.2388857113        7.7549652963        4.8401846854
  H        22.1215401326        5.8847100501        6.0701166308
  H        23.8084463672        5.7941245542        1.2563403501
  H        36.3458602328       32.1888687538        3.9923415790
  H        35.1893736848       30.3732832275        2.7340154532
  H        37.4454255723       27.4342928588        4.9185800780
  H        38.5823768621       29.2630985924        6.1869574797
  H        36.9643361677       29.4581421664        1.3188407540
  H        25.7201314408        8.6158605462        4.6471344449
  H        36.4555925503       32.2451367344       12.1143323252
  H        35.3460130445       30.4334006173       13.4182777772
  H        37.5563173947       27.4897457542       11.1915241159
  H        38.6392882425       29.3130361820        9.8734524612
  H        37.0159590376       29.4804290855       14.8723737219
  H        46.1088779116       26.5874164899       11.3856017327
  H        44.6682366627       35.1161520124        7.8139871805
  H        24.4420032036        3.0418465090       12.0818845550
  H        25.5760905010        4.8818106954       13.3292670885
  H        23.1695912276        7.7694181229       11.2397495907
  H        22.0474471044        5.9175568380        9.9918569932
  H        23.7936077403        5.7953498303       14.8075604702
  H        44.9536378707       34.3902739599        9.6951348647
  H        44.9017604890       34.2068098382        6.4906273565
  H        40.6664454075       33.2091609643       10.8531396811
  H        23.1503385939        1.9577900168        8.0049819230
  H        25.9281261625       19.6596677012        3.7947214964
  H        23.7370508375       19.7623653412        2.6109393872
  H        22.3479677190       16.3911962724        4.8934871497
  H        24.5352728387       16.3142052961        6.0876248135
  H        23.7399620833       17.7541689446        1.2332554314
  H        35.1248698931       15.4851206705        3.9660839614
  H        37.2503652780       15.4421367886        2.6502521288
  H        38.7149897595       18.7788172112        4.9356100981
  H        36.5898159297       18.7996094572        6.2541697102
  H        37.2286150372       17.4363296687        1.2525541453
  H        20.3971151872       18.1139514977        4.6756185291
  H        35.2114967730       15.4695712185       12.0734300170
  H        37.3437974587       15.4289199586       13.3784336665
  H        38.7312207123       18.8664046295       11.1974054677
  H        36.5945500112       18.8900464463        9.8934542704
  H        37.2489963479       17.4493197027       14.8009398580
  H        35.1753140177       26.6895966593       11.4115630169
  H        28.5130287579       21.0983117729        8.0018079023
  H        25.7399343220       19.6593209994       12.1256786535
  H        23.5560145390       19.7249630748       13.3398088619
  H        22.2992166599       16.1799576516       11.2541513190
  H        24.4826754004       16.1367543319       10.0345133470
  H        23.7030183155       17.7007635943       14.7862964179
  H        29.0093274808       21.7171746228        9.7655818094
  H        29.0730514053       21.7849919894        6.5884603828
  H        32.0869840103       18.5834556295       10.9850269315
  H        27.3932450776       19.0806320712        8.0759541313
  H        14.8439661181       19.6580404141       12.1313704374
  H        17.0025478650       19.7142219324       13.3799105981
  H        18.2917191052       16.1796505881       11.2956930814
  H        16.1300058891       16.1410308389       10.0442002017
  H        16.9245950562       17.7458764809       14.8791731551
  H        46.0909672290       15.4541124326       12.0795406342
  H        43.9701864202       15.4136371107       13.3945605508
  H        42.5686951001       18.8493561881       11.2180305946
  H        44.6888459807       18.8637050812        9.8920411714
  H        44.0313890599       17.3478086826       14.8547466399
  H        20.2735028842       17.9177100776       11.4288104247
  H        46.0404247945       15.3834882716        4.0404154798
  H        43.9066101412       15.3212014904        2.7480838259
  H        42.5133616194       18.7773525424        4.8960117237
  H        44.6539857122       18.8265218653        6.1884163026
  H        44.0113909295       17.3104824826        1.3043297168
  H        46.1994296713       26.6826072916        4.6233970190
  H        52.7410051690       21.0626740255        8.1946906916
  H        14.8777604136       19.7121999732        3.9265294051
  H        17.0793233698       19.8304258340        2.7576877017
  H        18.3785822352       16.3108171967        4.8597150570
  H        16.1785856584       16.2167959230        6.0394656257
  H        16.9598803652       17.7944807403        1.3254157779
  H        52.3218369634       21.6730689509        6.2945230132
  H        52.0129116922       21.7016824225        9.4957766404
  H        49.0678217649       18.6073645540        5.2042103711
  H        13.2476740306       19.0170060640        7.9788356387
  H        29.9391050802       12.4880987788       12.2379435521
  H        28.8818417914       10.5563290359       13.4178327096
  H        25.2585449324       11.1793570697       11.1857141639
  H        26.3383361303       13.0940040253        9.9928299879
  H        27.1798691257       11.6722574213       14.7929786058
  H        31.0118872127       22.7721745926       12.0220032860
  H        32.0226171927       24.6464055497       13.3226762827
  H        35.7033618453       24.1504537279       11.1527792637
  H        34.6714023867       22.2844314579        9.8462687402
  H        33.7061503271       23.5635546123       14.7509110632
  H        25.7164014292        8.5978659691       11.4009066743
  H        30.8878743978       22.6064912415        3.7813148323
  H        31.9078783177       24.5065537309        2.5347875597
  H        35.4523702142       24.1841698240        4.9529274484
  H        34.4080057983       22.3025846220        6.2152640072
  H        33.6432108761       23.5471611269        1.1977646273
  H        40.5905832930       17.0664012759        4.6693198795
  H        32.5256693414       14.1464515800        8.2462923253
  H        29.8996221167       12.4969193639        3.9447455768
  H        28.8644604926       10.6074731851        2.6859835934
  H        25.1873945374       11.1981882392        4.8371005728
  H        26.2394963907       13.0828723348        6.0985600329
  H        27.1716089360       11.6840936162        1.2416795479
  H        33.2929893898       14.1861431151        6.4299730116
  H        33.4109235552       14.3854453822        9.6139830137
  H        32.1292020073       18.5761066192        5.1507668315
  H        30.2338351521       14.1936293885        8.0723917640
  H        16.1182554827        2.9634179007       12.1296943999
  H        14.9532306153        4.8205896991       13.3224205731
  H        17.3665637621        7.6859391797       11.2101808764
  H        18.5151346686        5.8182915506       10.0103985017
  H        16.7537676229        5.7397307931       14.7715131252
  H        44.8278815206       32.1401794745       11.9770827276
  H        45.9370701888       30.3413009758       13.3065516488
  H        43.6821571913       27.3781006851       11.1524666700
  H        42.5996219313       29.1899538193        9.8097347147
  H        44.2302133643       29.4366096565       14.7690389512
  H        14.8514029470        8.5463937096       11.3633205251
  H        44.9000562135       32.2340398446        3.9319772084
  H        46.0249887902       30.4130134202        2.6525080755
  H        43.7633896493       27.4840615604        4.8452358882
  H        42.6455084761       29.3176880862        6.1242276096
  H        44.2685401992       29.4704241819        1.2183095396
  H        34.9585623048       26.6293209438        4.6518491778
  H        36.6051910583       35.1339547783        8.1806309531
  H        16.1437626138        3.0129948928        3.9040303526
  H        14.9742107329        4.8563593579        2.6882798469
  H        17.3960524702        7.7472760046        4.7552946876
  H        18.5430771759        5.8933223680        5.9829395095
  H        16.7648211404        5.7556205782        1.2192746173
  H        36.2789813053       34.4820840913        6.2730588348
  H        36.3808626383       34.2090197958        9.4995025072
  H        40.5781709873       33.2012015140        5.1544297112
  H        17.4709935444        1.9469022098        7.9739555628
  H        29.2037556781       19.5688712934       12.5868002353
  H        30.7218069708       15.4207322683        3.8211652170
  H        30.8783184689       15.4868519648       12.3347214538
  H        28.0590448189       18.2160168824       14.5014160831
  H        28.9540812486       15.5393200627       14.3439976940
  H        31.5714281353       19.5964340770        1.5180536639
  H        33.0397101855       17.2991533331       -0.2743420274
  H        29.0068816501       16.2762378771        1.3233978599
  H        32.4558153149       16.9501283297       13.5016280352
  H        18.8532342241        0.8689616576       12.3352025870
  H        40.5281915907       35.2289724777        3.9521752789
  H        42.3233020607       34.4182101351        3.5909256329
  H        22.0877044267        0.6919760089       12.3514912703
  H        11.5968185556       18.7133279532       12.3823937919
  H        52.2649092176       18.4308854428        3.6767958328
  H        49.2553612769       16.4772788404        3.5846330399
  H        10.1503576914       15.7981488214       12.2927689018
  H        50.8500980082       17.6922474650        3.9543687028
  H        10.0462618194       17.3945140189       12.0520045621
  H        20.2144386426        0.0022072584       12.0420152500
  H        39.1836614406       36.1243339943        3.6863880690
 Ni        30.9435026576       17.5225672440        2.6697950511
 Ni        30.9868688177       16.4733759516       -0.4979750123
 Ni        29.8418461819       18.5055884568        0.1676174314
 Ni        30.1839859347       17.5251169259       13.1576611907
  O        10.6500875558       14.3650825726        5.4858774316
  O        12.6133153800       14.6577465410        6.5839101690
  O        49.1480622199       16.8459056133        7.9897247497
  O        50.3503365690       20.9355678539        5.6479602600
  O        48.3486154724       20.5932717359        6.6658941889
  O        11.0520414057       17.0536599658        6.5008156202
  O        50.3210750940       20.8816726915       10.4067865749
  O        48.3467675985       20.5868094106        9.3271235311
  O        49.5437955468       18.2483975389       10.0681681679
  O        12.3595231730       18.6244229416        7.9994574085
  O        48.6933019247       14.1485190092        6.7513179637
  O         8.2098760240       14.2104417663        9.3225831235
  O        10.7354538197       14.5067269441       10.6642851535
  O        12.5719266584       14.5829785891        9.3283544786
  O        22.8444969807        2.0431249300        5.4871364080
  O        21.6053700930        3.5921850812        6.5897740212
  O        42.0579217422       34.1371302005        7.9789706363
  O        37.9810329940       33.1356792165        5.5719318812
  O        39.2165779602       31.5746035859        6.6648967431
  O        20.3083422084        1.0394491673        6.5020618919
  O        38.0247955421       33.1856516956       10.4155190388
  O        39.2184495916       31.5831910011        9.3273866078
  O        40.6522156142       33.7691940468       10.0600556604
  O        18.2557033525        1.3757590644        7.9967581541
  O        44.6221945534       35.1005421334        6.7587751591
  O        24.2053541355        0.0000066004        9.3207994917
  O        22.7532396309        2.0582239061       10.5839621715
  O        21.6245467092        3.5962556484        9.3428303116
  O        27.6301470365       18.6878285380        5.4108517941
  O        26.7413488317       16.9988697257        6.6577867189
  O        30.6606306531       19.4122740307        8.0719735475
  O        33.5825430739       16.2857073490        5.6668626605
  O        34.2665293979       18.1789104111        6.7327792489
  O        29.5720542431       17.0653258475        6.5816274710
  O        33.6222898735       16.3323870571       10.4088652689
  O        34.3063078017       18.2494977998        9.4033717000
  O        31.6528786448       18.3149185353       10.1572889362
  O        30.3257145229       15.1604583460        8.0746223436
  O        28.5503210085       21.0320616269        6.9132302621
  O        28.5146121193       20.9595971334        9.4080226982
  O        27.4555087136       18.6777432594       10.6615904570
  O        26.6924594075       16.9298290032        9.4130571586
  O        13.1479673716       18.6932316439       10.5874274972
  O        13.9202278574       16.9165515065        9.4060938986
  O        50.5963982765       19.3501613309        8.0199997411
  O        47.6830017965       16.3272234373       10.4174699405
  O        46.9519894567       18.1760192221        9.3244843435
  O        11.0703278018       17.0151163477        9.4893805569
  O        47.6767447501       16.3353488726        5.6534143415
  O        46.9276613949       18.2355984273        6.6647824265
  O        49.5693500086       18.3176791882        5.9823199720
  O        10.3187541771       15.1001843335        7.9970398145
  O        52.6708322727       21.0279004667        9.2418307933
  O        12.1468654941       20.8911916336        6.6732010947
  O        13.1099129430       18.6140926436        5.3253632009
  O        13.9606231629       16.9885531756        6.6628001624
  O        29.9946700441       14.4282033221       10.6592220121
  O        28.0744185928       14.6584274780        9.4796836069
  O        32.1070401921       16.9094552772        8.0553546426
  O        30.9699506434       20.9611980776       10.4014701142
  O        32.9495355133       20.6015976840        9.3359421289
  O        29.5613980606       17.0808965312        9.5729370047
  O        30.8093963667       20.7989802305        5.5015600217
  O        32.7778205042       20.5895409114        6.6484988265
  O        31.6075701003       18.2502246839        5.9025574631
  O        28.2788750645       18.6815929835        8.0813200983
  O        32.4965782996       14.2115344139        9.3240174000
  O        32.4051415176       14.2154780936        6.8235495280
  O        29.9108851912       14.4348139416        5.4872666987
  O        28.0337128374       14.5942916935        6.7500050476
  O        17.8891903113        1.9665821648       10.6628140478
  O        18.9562256178        3.5270917807        9.4079731912
  O        39.1685377154       34.1385763163        7.9970082899
  O        43.2801401066       33.0589337572       10.3316407980
  O        42.0343150407       31.5064876784        9.2415704063
  O        20.3175550854        1.0366021873        9.4802314473
  O        43.2761077367       33.1825605943        5.5748886807
  O        42.0052295894       31.5840970348        6.5829628606
  O        40.5789859753       33.7749197177        5.9358104224
  O        22.3672481776        1.3845242998        7.9979785402
  O        36.6727595810       35.0996901135        9.2332667292
  O        16.4457074139        0.0640836453        6.6681867152
  O        17.9364718864        2.0434064348        5.3263443741
  O        18.9190516873        3.5931142112        6.6659861737
  O        29.8280911233       19.1083828804       11.9953462838
  O        31.2585014962       16.1932488478        4.0774146895
  O        31.3031274253       16.2722667311       11.9265751262
  O        32.9534301511       16.9341258561        0.6584422038
  O        29.8655928128       16.7026573732        1.1683097027
  O        29.8750667692       15.6888111720       14.0788455037
  O        32.1041037161       17.5054352878       14.2280783102
  O        30.7157702146       19.1911541573        1.7367319815
  O        28.9723995345       18.5434557994       14.4870508563
  O        39.4568390751       35.2437351995        4.0019755098
  O        19.1411749959        0.0044815834       11.9905403011
  O        41.9695136465       35.1726369125        4.0871536961
  O        21.6912000059       -0.0693694097       11.8957958036
  O        51.3653183578       18.6141929013        4.0054505437
  O        10.7510179568       18.7471848897       11.9048362792
  O        50.0798706731       16.4128411264        4.0917469835
  O         9.5245769917       16.4830560661       11.9912072591
 Zr         9.2971025799       16.0526554802        6.1825929537
 Zr        49.8364630091       16.0066459433        9.7463373967
 Zr        22.0732307842        0.0296585137        6.1890385225
 Zr        42.4608417620       35.1534545976        9.8009134254
 Zr        29.6122228177       19.1010789451        6.3846733470
 Zr        29.5712003934       19.1710020163        9.9096932569
 Zr        11.0378717448       19.0516839049        9.8274377947
 Zr        11.0444638423       19.1545483053        6.2506332260
 Zr        31.3575881409       16.0904125891        9.8520801572
 Zr        31.3914356933       16.0078907065        6.2475280791
 Zr        18.6010138381       -0.0017062067        9.7634029123
 Zr        18.5066558518       -0.0080886962        6.2133846032
 Zr        12.3031788098       16.3238397253        7.9895234421
 Zr        48.6166333567       18.8332421421        8.0101520064
 Zr        20.3152156672        2.4733394780        7.9907256929
 Zr        40.6428714368       32.6865809884        7.9777003700
 Zr        28.3436157212       16.3426019120        8.0877420302
 Zr        32.6472679953       18.8401879511        8.0675515089
  H        33.5374708333       16.1595503278        0.7046770801
