     570
 i =      227, E =     -4745.5557776208
  C        11.8589184788       14.0535641506        5.7415868549
  C        12.4564826718       12.8905993701        5.0234019917
  C        11.7047900820       12.1716561525        4.0817410344
  C        12.2811701180       11.1094621253        3.3893826896
  C        13.6217694898       10.7397146287        3.6170744589
  C        14.3549290921       11.4432909440        4.5905454048
  C        13.7820449915       12.5082779858        5.2820592712
  C        14.2613300791        9.6490895390        2.8436291212
  C        14.2566248182        9.6570333132        1.4219219627
  C        13.7433963573       10.7591391023        0.6680326718
  C        49.1269495517       21.2330328716        5.8796534308
  C        48.5502503178       22.4010723820        5.1525582591
  C        49.3002487326       23.0683808560        4.1715421740
  C        48.7333205407       24.1075668535        3.4383835908
  C        47.4027975765       24.5092343253        3.6670428916
  C        46.6718767884       23.8603660983        4.6805747613
  C        47.2343261835       22.8154265968        5.4098843147
  C        46.7725354545       25.5869840789        2.8698328497
  C        46.7614137229       25.5573851166        1.4480677576
  C        47.2611722396       24.4422280251        0.7045519397
  C        14.8605932466        8.5707254128        0.7086328131
  C        14.8921793066        8.5971622274        3.5202503638
  C        49.1132460544       21.2034388714       10.1453812511
  C        48.5278364305       22.3647839313       10.8726339811
  C        49.2670450224       23.0255558790       11.8655149552
  C        48.6907037426       24.0601366414       12.5969463163
  C        47.3602745275       24.4568567858       12.3587364502
  C        46.6398591396       23.8118697249       11.3352745648
  C        47.2134259265       22.7759330830       10.6035353541
  C        46.7218324247       25.5318606966       13.1497445069
  C        46.7335152903       25.5281925008       14.5714502372
  C        47.2488686877       24.4289142078       15.3277921134
  C        40.6339712914       17.1180808357       15.3245935565
  C        40.6508656530       17.1572911458       12.5157963032
  C        11.8830964966       14.0866854234       10.2853868836
  C        12.4725160878       12.9109042469       10.9896457907
  C        11.7150859824       12.1777874539       11.9158930753
  C        12.2817261415       11.0953810496       12.5843488585
  C        13.6205071039       10.7215744407       12.3524252048
  C        14.3583505213       11.4369750980       11.3913915049
  C        13.7928589475       12.5180805216       10.7186374985
  C        14.2541165314        9.6248137436       13.1228260978
  C        14.2528457272        9.6447592822       14.5446749659
  C        13.7428972356       10.7536567767       15.2917755924
  C        22.5105394871        3.2456363074        5.7520588460
  C        23.2196901315        4.3538067799        5.0511834042
  C        24.2184801547        4.0802082969        4.1049797333
  C        24.8394256074        5.1238873304        3.4233295955
  C        24.4769227993        6.4638580184        3.6665638014
  C        23.5060729543        6.7289192548        4.6496617961
  C        22.8810584874        5.6872810466        5.3301484885
  C        25.0772241991        7.5744311813        2.8920489004
  C        25.0593941988        7.5641963668        1.4701584801
  C        24.3665215827        6.5600778110        0.7218259511
  C        38.2962743746       31.9269182558        5.8530236895
  C        37.5502453439       30.8368285127        5.1557427691
  C        36.5816467675       31.1425487246        4.1869253159
  C        35.9476415727       30.1241319173        3.4796077494
  C        36.2657859255       28.7721546596        3.7166912084
  C        37.2028229204       28.4737692393        4.7242246345
  C        37.8409228265       29.4913730069        5.4309995408
  C        35.6547988333       27.6844057747        2.9153279800
  C        35.7014715556       27.7006423484        1.4931639782
  C        36.4188469018       28.7011965860        0.7638273162
  C        25.6822183817        8.6353070687        0.7515327843
  C        25.6617549258        8.6556437207        3.5643363301
  C        38.3320544132       31.9610906434       10.1618852877
  C        37.6186506775       30.8884819935       10.9155185039
  C        36.6866933104       31.1992485327       11.9178544622
  C        36.0782891415       30.1833271519       12.6533184545
  C        36.3866129829       28.8295935913       12.4107500872
  C        37.3011478400       28.5286840392       11.3824980155
  C        37.9113262110       29.5411581957       10.6481783468
  C        35.7689954621       27.7313705537       13.1910854526
  C        35.7595494947       27.7249661216       14.6138248411
  C        36.4449396673       28.7139272602       15.3871640427
  C        46.1355610996       26.6208583093       15.2815904232
  C        46.0878988775       26.5802275063       12.4736840256
  C        22.4633402103        3.2574085548       10.2584036017
  C        23.1610842979        4.3662247983       10.9795473747
  C        24.1638866985        4.0803152414       11.9200348063
  C        24.7948222096        5.1102343115       12.6144528011
  C        24.4440926302        6.4571444800       12.3919185171
  C        23.4648628012        6.7361787811       11.4194267958
  C        22.8292925044        5.7066032189       10.7254581259
  C        25.0744107725        7.5562952272       13.1672604193
  C        25.0585191477        7.5541586051       14.5903058538
  C        24.3633616575        6.5570383055       15.3448974074
  C        26.6810672430       17.8751443230        5.7283175098
  C        25.3815936907       17.9582224718        4.9945997695
  C        25.1329394214       18.9468086691        4.0295503445
  C        23.9052365891       18.9924224768        3.3677254246
  C        22.8903719832       18.0523496187        3.6452172235
  C        23.1384945234       17.0872047499        4.6395741531
  C        24.3635047481       17.0380034316        5.3001911649
  C        21.6064827347       18.0422828540        2.8966077953
  C        21.5962233054       17.9955119602        1.4746194969
  C        22.7961486222       17.8493932585        0.7090602706
  C        34.4701031163       17.2532697869        5.9535342710
  C        35.7598394062       17.1853007001        5.2109038173
  C        35.9405155713       16.2169864489        4.2109039099
  C        37.1135130891       16.1909807008        3.4625071369
  C        38.1360566789       17.1310184122        3.6951609389
  C        37.9583492094       18.0777300845        4.7223415256
  C        36.7824145522       18.1106239000        5.4673900490
  C        39.3846672005       17.1276967080        2.9008826960
  C        39.3778261829       17.1392941962        1.4790713888
  C        38.1705832688       17.2666954212        0.7226318570
  C        20.3447272006       18.0022566212        0.7744521395
  C        20.3846124396       18.0474055751        3.5874589075
  C        34.4816301671       17.2446833439       10.1775258672
  C        35.7792995268       17.1761575106       10.9054717743
  C        35.9821758400       16.1997842055       11.8923153065
  C        37.1662616871       16.1788005269       12.6228634795
  C        38.1743219870       17.1332851975       12.3858497923
  C        37.9761625386       18.0857176488       11.3688432393
  C        36.7899506128       18.1123081189       10.6408302687
  C        39.4203944108       17.1461752863       13.1814163426
  C        39.3965809733       17.1505795607       14.6025513959
  C        38.1797702183       17.2705433908       15.3456100920
  C        35.1167973936       26.6476046423       15.3100993702
  C        35.1842173218       26.6617035009       12.5004117814
  C        26.5664520566       17.8294017083       10.3239825370
  C        25.2502470909       17.8807720744       11.0257195369
  C        24.9885576655       18.8871203853       11.9681056025
  C        23.7703342867       18.9166071598       12.6409235284
  C        22.7843021972       17.9391347231       12.3976591828
  C        23.0404568295       16.9581184144       11.4222776818
  C        24.2589705501       16.9269622351       10.7463138847
  C        21.5231675930       17.9243528226       13.1756821057
  C        21.5539115003       17.9322815703       14.5973013943
  C        22.7757110047       17.8191235044       15.3334319841
  C        14.0453254170       17.8272027866       10.2920952491
  C        15.3459326397       17.8823800499       11.0250132941
  C        15.6022536017       18.8935337132       11.9644236584
  C        16.8092162975       18.9184767762       12.6607397981
  C        17.7945215129       17.9347474722       12.4406355687
  C        17.5411171069       16.9444853033       11.4725146544
  C        16.3338916269       16.9156287270       10.7768899416
  C        19.0665341673       17.9288920970       13.2056219847
  C        19.0728567637       17.9479136719       14.6282456653
  C        17.8705122306       17.8605487217       15.3981116836
  C        46.8056362850       17.2186895522       10.1590872032
  C        45.5167900455       17.1571317882       10.9058571178
  C        45.3106216002       16.1768639075       11.8888327412
  C        44.1301304282       16.1589744891       12.6266604230
  C        43.1266973453       17.1220157594       12.4038996327
  C        43.3302018097       18.0820771607       11.3942771601
  C        44.5110504253       18.1034486865       10.6569071884
  C        41.8748154450       17.1342143964       13.1938065937
  C        41.8807428189       17.1273611560       14.6155507487
  C        43.0905535039       17.2137070216       15.3735385146
  C        20.3234523148       17.9703669286       15.3293383141
  C        20.2871085840       17.9025826217       12.5166103495
  C        46.7870623770       17.2299607757        5.8909797028
  C        45.4843656693       17.1217019567        5.1777667130
  C        45.2667270892       16.1198363376        4.2200465305
  C        44.0794945154       16.0915281414        3.4932774372
  C        43.0823734930       17.0622443093        3.7083321920
  C        43.2898936141       18.0332960607        4.7054779781
  C        44.4781037622       18.0679303743        5.4273368792
  C        41.8376646081       17.0857282611        2.9112814590
  C        41.8619128555       17.1007316266        1.4908642374
  C        43.0816502785       17.1985702153        0.7500923971
  C        46.1533953637       26.6372918079        0.7263548146
  C        46.1626859323       26.6561381484        3.5360000645
  C        14.0527160255       17.8397138209        5.7121633570
  C        15.3813577460       17.9357333562        5.0322028437
  C        15.6498171813       18.9637439422        4.1150704571
  C        16.8819169179       19.0234003031        3.4658941508
  C        17.8779411413       18.0546260893        3.7051075479
  C        17.6168560857       17.0565634162        4.6623904335
  C        16.3865700459       16.9967316120        5.3160384277
  C        19.1457574214       18.0456656704        2.9299800636
  C        19.1138051088       18.0076259733        1.5076464504
  C        17.8903630872       17.8872960175        0.7742624321
  C        28.8119437404       14.0869727375       10.3604641309
  C        28.2036967073       12.9178750773       11.0593509296
  C        28.9212012802       12.2002675561       12.0280479515
  C        28.3233988737       11.1291689274       12.6885463948
  C        26.9948648389       10.7511641449       12.4049522839
  C        26.2998797670       11.4514010821       11.4022953895
  C        26.8942295413       12.5229876790       10.7410258646
  C        26.3248576265        9.6720651734       13.1676086670
  C        26.3003395215        9.7034194304       14.5888569265
  C        26.7931330323       10.8205626347       15.3355185533
  C        32.1794576940       21.2455098799       10.1453638843
  C        32.7758339122       22.4118495686       10.8632722034
  C        32.0247184148       23.0937485043       11.8334380533
  C        32.5941543572       24.1332411953       12.5628004782
  C        33.9312420213       24.5195826139       12.3452702823
  C        34.6650266317       23.8561817340       11.3435193487
  C        34.0977445324       22.8115033748       10.6152165467
  C        34.5576191289       25.5932405011       13.1517497221
  C        34.5325975379       25.5651173829       14.5737118700
  C        34.0145327983       24.4504076482       15.3055706694
  C        25.6879168300        8.6257658358       15.3062916916
  C        25.6943297765        8.6173963769       12.4931555040
  C        32.0180204872       21.1626097663        5.7966708636
  C        32.5888615017       22.3361631642        5.0752826020
  C        31.8686529766       22.9999232124        4.0692825238
  C        32.4502556175       24.0527253071        3.3648151467
  C        33.7674258912       24.4718829525        3.6425320606
  C        34.4657862619       23.8248099651        4.6805377757
  C        33.8892353280       22.7708260784        5.3832672586
  C        34.4217991990       25.5580263815        2.8739804463
  C        34.4617565995       25.5478517648        1.4515738890
  C        33.9794932792       24.4425541502        0.6819232997
  C        40.6238655991       17.1081406281        0.7689967953
  C        40.6088489217       17.1170237820        3.5780653145
  C        28.7105471890       14.0946773566        5.8166952590
  C        28.0928084117       12.9530474185        5.0819552115
  C        28.8287597534       12.2454264253        4.1184024509
  C        28.2455490875       11.1912318254        3.4209751427
  C        26.9094215297       10.8136021198        3.6622807265
  C        26.1895805797       11.5071023544        4.6536501779
  C        26.7708289768       12.5646836529        5.3515669951
  C        26.2724014987        9.7200797758        2.8885508439
  C        26.2752329136        9.7280281009        1.4661060331
  C        26.7790558636       10.8339914200        0.7116665045
  C        18.1354521604        3.1810443420       10.3172127445
  C        17.4062346025        4.2782725267       11.0157958959
  C        16.3904069910        4.0000243506       11.9432454900
  C        15.7427419230        5.0400753500       12.6066751466
  C        16.0948509943        6.3837696297       12.3670674152
  C        17.0843669365        6.6531809920       11.4034109400
  C        17.7334192466        5.6157736276       10.7384258284
  C        15.4705577422        7.4914931175       13.1301069394
  C        15.4858154284        7.4907486282       14.5518185002
  C        16.1874576363        6.4971718334       15.3049552528
  C        42.9458399328       31.8596046419       10.0728602936
  C        43.6462064061       30.7719252023       10.8167993970
  C        44.5914457060       31.0932954464       11.8031457576
  C        45.1971826006       30.0877709159       12.5508184615
  C        44.8710880674       28.7346495356       12.3357645819
  C        43.9456109174       28.4202788899       11.3222227491
  C        43.3367807438       29.4253874129       10.5741460210
  C        45.4886715333       27.6553517434       13.1389660459
  C        45.4928866594       27.6810087017       14.5606672490
  C        44.8058744784       28.6890742148       15.3073360126
  C        14.8568536993        8.5632320416       15.2641993862
  C        14.8753551899        8.5633032573       12.4515143897
  C        42.9464827102       31.9616370041        5.8090023602
  C        43.6918205837       30.8855035430        5.0956776772
  C        44.6562924587       31.1914603521        4.1232578098
  C        45.2778929120       30.1719075247        3.4055528664
  C        44.9543317390       28.8215439919        3.6432842418
  C        44.0210816505       28.5238377049        4.6542838850
  C        43.3927406254       29.5405677213        5.3664528316
  C        45.5633286016       27.7241446881        2.8579955089
  C        45.5335377660       27.7174866629        1.4366900988
  C        44.8272258100       28.7077239046        0.6837313967
  C        35.0839620988       26.6373123611        0.7556700079
  C        35.0319824154       26.6126462035        3.5667129532
  C        18.1487364016        3.2470822855        5.7066363623
  C        17.4303102406        4.3439119822        4.9972649891
  C        16.4150506183        4.0527026064        4.0737216118
  C        15.7668058443        5.0833787388        3.3983542145
  C        16.1215928734        6.4285932779        3.6210379570
  C        17.1131388101        6.7119027214        4.5781452246
  C        17.7607467176        5.6829537525        5.2579145735
  C        15.4910743340        7.5242962646        2.8486165452
  C        15.4968784456        7.5076414507        1.4274860866
  C        16.1937009612        6.5059970223        0.6807681460
  H        10.6726422636       12.4657433133        3.9047568296
  H        11.6948645410       10.5509714308        2.6628637304
  H        15.3919996866       11.1687890141        4.7722057629
  H        14.3515690635       13.0715903576        6.0173833768
  H        13.3763470917       11.6312275938        1.2013782218
  H        50.3229299549       22.7482877294        3.9867415771
  H        49.3197872594       24.6228118625        2.6807761378
  H        45.6423785334       24.1611129667        4.8637534223
  H        46.6633181086       22.2901559023        6.1719595864
  H        47.6296365682       23.5758057936        1.2462191321
  H        14.8726270535        8.5884457564        4.6085594708
  H        50.2871054277       22.7027279880       12.0603948957
  H        49.2691016033       24.5756134203       13.3604310533
  H        45.6104223590       24.1090258397       11.1462663132
  H        46.6525891379       22.2536866936        9.8320380396
  H        47.6075181561       23.5517596247       14.7968677474
  H        40.6558720940       17.1287608403       11.4278864025
  H        48.6872298809       14.0947329941        7.8001083031
  H        10.6816389284       12.4668909603       12.0933913985
  H        11.6899741238       10.5250513118       13.2971303714
  H        15.3937488243       11.1590402346       11.2053315682
  H        14.3651038448       13.0872790180        9.9898922890
  H        13.3760783934       11.6222963471       14.7531768480
  H        47.9301745065       14.2185599394        9.7107028017
  H        47.7801453933       14.3735925537        6.4953897211
  H        49.0840181773       18.5522405729       10.8674604192
  H        10.4163240124       14.1343093937        7.9986423636
  H        24.4865090611        3.0433937116        3.9141541029
  H        25.6146580710        4.9110059317        2.6904467672
  H        23.2182167684        7.7599663488        4.8443439887
  H        22.1096267682        5.8831693635        6.0708187490
  H        23.8049928402        5.8022225120        1.2602857680
  H        36.3505304406       32.1865443971        3.9887226509
  H        35.1987705710       30.3679845160        2.7291701717
  H        37.4579138273       27.4337464888        4.9172815100
  H        38.5900462800       29.2656443846        6.1863946876
  H        36.9792621090       29.4495393643        1.3165394237
  H        25.6894135753        8.6413599246        4.6524218380
  H        36.4577768236       32.2437648290       12.1169940299
  H        35.3483403713       30.4317979263       13.4206106214
  H        37.5540655715       27.4883351337       11.1888465834
  H        38.6374309749       29.3121031491        9.8719094095
  H        37.0261530636       29.4718514446       14.8696011797
  H        46.1093696661       26.5876377519       11.3856498083
  H        44.6684033101       35.1162698069        7.8139134654
  H        24.4398722948        3.0418978352       12.0891029717
  H        25.5752493885        4.8797187582       13.3365572222
  H        23.1815836515        7.7708899535       11.2373174782
  H        22.0576767434        5.9212390150        9.9896514056
  H        23.7988151824        5.7973965054       14.8120351827
  H        44.9541732010       34.3907595826        9.6954361539
  H        44.9019798929       34.2070147393        6.4904750848
  H        40.6669890676       33.2096213712       10.8534378079
  H        23.1503767596        1.9583492456        8.0051366619
  H        25.9083018979       19.6789624396        3.8143587183
  H        23.7188604528       19.7667290434        2.6265324787
  H        22.3704473436       16.3498389067        4.8639460313
  H        24.5606685057       16.2793404369        6.0534572227
  H        23.7394823438       17.7270137838        1.2331402164
  H        35.1418394526       15.5015923640        4.0281646526
  H        37.2530363662       15.4344687290        2.6934185008
  H        38.7413951759       18.8105234144        4.9057017384
  H        36.6278835520       18.8577766303        6.2423238915
  H        37.2312659359       17.3942298649        1.2533054628
  H        20.3985887501       18.0986186241        4.6748958651
  H        35.1924290075       15.4767624468       12.0828278324
  H        37.3241870245       15.4187842885       13.3848559243
  H        38.7489401218       18.8287391135       11.1830359953
  H        36.6150577673       18.8643015054        9.8750547796
  H        37.2471556366       17.3995391450       14.8039031118
  H        35.1701269330       26.6884661588       11.4124673283
  H        28.5136000682       21.0945472267        8.0025080702
  H        25.7531527221       19.6371351582       12.1574372277
  H        23.5682222312       19.7011565780       13.3668805798
  H        22.2886727752       16.1958569363       11.2279483845
  H        24.4720238474       16.1564616588       10.0091450109
  H        23.7031526864       17.6751636368       14.7872073815
  H        29.0020681109       21.7180954681        9.7690768415
  H        29.0803954553       21.7819510855        6.5945863014
  H        32.0945942086       18.5340815899       10.9864577201
  H        27.3989674607       19.0794353393        8.0772226540
  H        14.8457092956       19.6568464947       12.1321030110
  H        17.0046968724       19.7107004074       13.3802671956
  H        18.2904473935       16.1758344630       11.2945821506
  H        16.1283129947       16.1393134591       10.0436391992
  H        16.9247587626       17.7385779458       14.8779960839
  H        46.0924758022       15.4424911392       12.0675626249
  H        43.9702415952       15.3908767589       13.3801336748
  H        42.5632892205       18.8335524707       11.2184172616
  H        44.6848022826       18.8587037083        9.8940174721
  H        44.0324407178       17.3248011193       14.8439821758
  H        20.2741627679       17.9188056913       11.4282385402
  H        46.0438311164       15.3790277006        4.0464782313
  H        43.9118670409       15.3150689296        2.7500670628
  H        42.5234646446       18.7862711372        4.8766323974
  H        44.6616578052       18.8362651231        6.1742931667
  H        44.0167357209       17.2969217227        1.2937934872
  H        46.1996419747       26.6826720154        4.6234424427
  H        52.7409979695       21.0625959088        8.1946781117
  H        14.8816425995       19.7103052642        3.9254899740
  H        17.0835745462       19.8235716695        2.7568263586
  H        18.3745397590       16.3005038130        4.8581755816
  H        16.1743490602       16.2114120774        6.0377112019
  H        16.9597196813       17.7857289429        1.3244243119
  H        52.3216340525       21.6729290078        6.2945145539
  H        52.0127176187       21.7015244431        9.4956765429
  H        49.0680940004       18.6074472038        5.2041610927
  H        13.2477926571       19.0167618898        7.9786972448
  H        29.9436262995       12.4978843088       12.2512442590
  H        28.8823162440       10.5720168670       13.4373155114
  H        25.2731846359       11.1712564671       11.1757771865
  H        26.3535168932       13.0842401519        9.9829760025
  H        27.1567791508       11.6898604351       14.7959842547
  H        30.9985249353       22.7818222435       12.0125183136
  H        32.0056128262       24.6599417554       13.3108400338
  H        35.7000602819       24.1431648944       11.1692492306
  H        34.6720015410       22.2743863021        9.8638050739
  H        33.6686863170       23.5800755056       14.7552860452
  H        25.7316778249        8.5953107531       11.4054061539
  H        30.8563869411       22.6730973390        3.8426664142
  H        31.8833971167       24.5656641181        2.5909120404
  H        35.4844078134       24.1346000718        4.9047490361
  H        34.4383945545       22.2519355246        6.1652069398
  H        33.6078492023       23.5648394117        1.2028351869
  H        40.6036479226       17.0800665658        4.6656998293
  H        32.5216138025       14.1466304898        8.2508878747
  H        29.8616178558       12.5293723088        3.9324433716
  H        28.8253568249       10.6417532589        2.6826037212
  H        25.1557208595       11.2290062081        4.8478972746
  H        26.2097977538       13.1150833040        6.1031767770
  H        27.1303895519       11.7139916531        1.2428348897
  H        33.3004016462       14.2037239011        6.4374241128
  H        33.4119745867       14.3857688316        9.6099921990
  H        32.1013758233       18.5445684575        5.0523766416
  H        30.2384669433       14.1956249885        8.0667421301
  H        16.1181939264        2.9635543845       12.1295999264
  H        14.9532139673        4.8207928142       13.3222768921
  H        17.3670319166        7.6860131340       11.2104126208
  H        18.5156345602        5.8183978484       10.0107637633
  H        16.7541077667        5.7399167882       14.7714374590
  H        44.8275415789       32.1403912524       11.9775148552
  H        45.9368708546       30.3415996915       13.3069116654
  H        43.6832704356       27.3781663412       11.1518232466
  H        42.6005665562       29.1899848031        9.8091129479
  H        44.2305573592       29.4369048216       14.7690860711
  H        14.8516309449        8.5465889715       11.3632931250
  H        44.8997127561       32.2341482461        3.9316821063
  H        46.0247106319       30.4131928989        2.6522443681
  H        43.7643692212       27.4840817522        4.8460474624
  H        42.6464361821       29.3177165691        6.1250728830
  H        44.2688296271       29.4706858145        1.2183260502
  H        34.9772731747       26.6244679557        4.6537638479
  H        36.6054161187       35.1340306224        8.1806420403
  H        16.1438421681        3.0131492591        3.9040767809
  H        14.9744207486        4.8566049407        2.6883148095
  H        17.3968405991        7.7473406692        4.7548981507
  H        18.5437361378        5.8934062326        5.9825546233
  H        16.7652634856        5.7558345877        1.2191794073
  H        36.2792882724       34.4820980055        6.2729735553
  H        36.3813454388       34.2088434026        9.4993168671
  H        40.5793560159       33.2022716992        5.1542121296
  H        17.4713480260        1.9473607507        7.9741290755
  H        29.0690425467       19.2999015509       12.5417713433
  H        30.9933817016       15.0364997290        3.8986263840
  H        31.3029886220       15.5164974448       12.4388442786
  H        27.9711576308       17.7772994814       14.5711889793
  H        29.6297464309       15.0091560323       14.4520357138
  H        28.4691738083       18.0337833730        1.9406534604
  H        32.2700984209       18.5296519768       14.5542923082
  H        18.8539704273        0.8692916837       12.3351169727
  H        40.5281921680       35.2288531466        3.9520137720
  H        42.3247672174       34.4195615949        3.5902381704
  H        22.0878453446        0.6922327088       12.3515300156
  H        11.5969531743       18.7130986585       12.3823316707
  H        52.2649137969       18.4308471941        3.6768100355
  H        49.2552904601       16.4770226400        3.5846642898
  H        10.1498465145       15.7981747692       12.2932141714
  H        50.8500379539       17.6922161607        3.9543620274
  H        10.0460489672       17.3944112530       12.0520517507
  H        20.2154339514        0.0025126921       12.0418766861
  H        39.1838314492       36.1244969843        3.6865693361
 Ni        30.3518706067       16.7510064565        2.5847184184
 Ni        31.3215545598       16.1323209168       -0.3292711359
 Ni        29.9727494668       18.1297077842       -0.0801858156
 Ni        30.1855181177       17.3735430441       13.2345791043
  O        10.6501337031       14.3650278359        5.4858661172
  O        12.6133987468       14.6576904434        6.5838902201
  O        49.1481632622       16.8458880135        7.9897709049
  O        50.3503594203       20.9356275569        5.6479488345
  O        48.3485755308       20.5933263287        6.6658984204
  O        11.0521547408       17.0536271678        6.5008242391
  O        50.3210619664       20.8816716840       10.4068157809
  O        48.3467696944       20.5868289663        9.3271607291
  O        49.5438973484       18.2484073977       10.0682125310
  O        12.3595281016       18.6244394562        7.9994706515
  O        48.6933450091       14.1484667668        6.7513814593
  O         8.2099459644       14.2103342489        9.3225226789
  O        10.7354411539       14.5066808003       10.6643025953
  O        12.5718931281       14.5829960383        9.3283586971
  O        22.8447583180        2.0445072315        5.4869366152
  O        21.6050313165        3.5921228101        6.5904492587
  O        42.0581195446       34.1374674802        7.9790133203
  O        37.9811944339       33.1356745918        5.5719215290
  O        39.2170806291       31.5748611639        6.6653583883
  O        20.3085297382        1.0398608380        6.5022729787
  O        38.0244824677       33.1850296489       10.4158437931
  O        39.2183662858       31.5829374064        9.3275386605
  O        40.6522106358       33.7692906939       10.0601227691
  O        18.2558636405        1.3759528689        7.9968312315
  O        44.6221682389       35.1006280626        6.7587467288
  O        24.2053971545        0.0000364770        9.3207448416
  O        22.7534863215        2.0586367112       10.5844358854
  O        21.6252903244        3.5970446775        9.3444880449
  O        27.6319228577       18.6900123548        5.4103106164
  O        26.7409792427       17.0036444008        6.6581422947
  O        30.6649304250       19.4081378399        8.0672005351
  O        33.6178365874       16.3344268118        5.7381042614
  O        34.3021483283       18.2548374613        6.7400828727
  O        29.5785033442       17.0631715775        6.5796323249
  O        33.6262989105       16.3276856920       10.3950330450
  O        34.3068001183       18.2508666691        9.4037794629
  O        31.6574072501       18.3147733422       10.1467479915
  O        30.3273470127       15.1627912746        8.0712001312
  O        28.5512175445       21.0309415676        6.9131193869
  O        28.5150390111       20.9572447185        9.4085900026
  O        27.4562427727       18.6785857974       10.6606114051
  O        26.6927682889       16.9306495730        9.4135466450
  O        13.1481527054       18.6931455065       10.5874634238
  O        13.9201343249       16.9164723984        9.4059813520
  O        50.5964746273       19.3502073363        8.0200845936
  O        47.6838318735       16.3267580190       10.4171424404
  O        46.9518103075       18.1757926811        9.3247914868
  O        11.0704187385       17.0150959996        9.4894437340
  O        47.6776085169       16.3349938139        5.6536176956
  O        46.9289080020       18.2354263138        6.6651062052
  O        49.5694000821       18.3176627539        5.9823659807
  O        10.3188424935       15.1001499932        7.9970463289
  O        52.6707710286       21.0278444824        9.2418252908
  O        12.1468687254       20.8911699192        6.6731910900
  O        13.1101723803       18.6140134477        5.3252991322
  O        13.9604228397       16.9884915173        6.6629473709
  O        30.0003567965       14.4358140472       10.6629993791
  O        28.0783707661       14.6583890695        9.4803495641
  O        32.1061687094       16.9163888332        8.0202342688
  O        30.9673401626       20.9553247984       10.4070329577
  O        32.9474179923       20.6043969349        9.3379135005
  O        29.5656675214       17.0787520743        9.5742026133
  O        30.8074436597       20.8009641834        5.4991659369
  O        32.7742612357       20.5910372698        6.6477469530
  O        31.5956978766       18.2401142054        5.8235182869
  O        28.2847465395       18.6805281481        8.0824943523
  O        32.4958207836       14.2130907812        9.3240767678
  O        32.4058769712       14.2196486846        6.8180345649
  O        29.9018882639       14.4329968462        5.4989715391
  O        28.0067148884       14.6475017846        6.7361119042
  O        17.8892582610        1.9665928433       10.6627566192
  O        18.9562851849        3.5271068031        9.4079962958
  O        39.1685598597       34.1386309179        7.9970937089
  O        43.2801720184       33.0589997985       10.3317017113
  O        42.0343496733       31.5065249663        9.2416047447
  O        20.3177521344        1.0367703545        9.4801726857
  O        43.2760092164       33.1825721411        5.5749260562
  O        42.0051727620       31.5841330105        6.5829984536
  O        40.5791452332       33.7752898392        5.9360941508
  O        22.3674371470        1.3848247463        7.9980653840
  O        36.6728255216       35.0996938905        9.2333129664
  O        16.4458050452        0.0641413266        6.6682089389
  O        17.9365527257        2.0433791411        5.3264448981
  O        18.9191043801        3.5931148464        6.6660163668
  O        29.8182214610       18.9762524869       12.0016681167
  O        31.4281346317       15.9103317800        3.9890238890
  O        31.4162583622       16.3467615542       11.9279292663
  O        31.9765553492       16.8534303817        1.2679093942
  O        29.0392872345       17.4457467632        1.4181034470
  O        30.4272538669       15.4800771650       14.1589322976
  O        31.5056134451       17.9432008057       14.6616837171
  O        28.7656206043       18.3120517084       14.4052341941
  O        39.4568552145       35.2437547602        4.0019564574
  O        19.1418944952        0.0047738105       11.9905050799
  O        41.9695222000       35.1727682358        4.0872538472
  O        21.6913819750       -0.0692124064       11.8959147943
  O        51.3653118628       18.6141877075        4.0054287216
  O        10.7511080194       18.7471689062       11.9048526550
  O        50.0798457228       16.4128571936        4.0917339484
  O         9.5242774323       16.4830657395       11.9911945295
 Zr         9.2971559902       16.0524909736        6.1825951492
 Zr        49.8365967056       16.0065026341        9.7463313615
 Zr        22.0735499299        0.0305864576        6.1888888309
 Zr        42.4612798204       35.1541355073        9.8011217718
 Zr        29.6187328542       19.0952997192        6.3849223904
 Zr        29.5729178618       19.1653081594        9.9150149392
 Zr        11.0380376283       19.0515361176        9.8274942208
 Zr        11.0445651494       19.1543513605        6.2506723750
 Zr        31.3626698343       16.1007307785        9.8497550849
 Zr        31.3954171823       16.0048908975        6.2293938994
 Zr        18.6014259131       -0.0011041177        9.7634130459
 Zr        18.5070755670       -0.0072814986        6.2136601486
 Zr        12.3032520132       16.3238064706        7.9895181482
 Zr        48.6168274189       18.8330451356        8.0104049845
 Zr        20.3159584933        2.4744491941        7.9912014579
 Zr        40.6436506696       32.6873603392        7.9779027564
 Zr        28.3416982691       16.3440542586        8.0888882724
 Zr        32.6589049254       18.8431306663        8.0669123000
  H        29.2908226702       16.7469768682        3.5638139025
  H        32.5597004564       16.2382096927        1.7498861563
  H        30.8714611300       15.0060342638        0.4523051225
