     573
 i =      229, E =     -4762.8316904247
  C        11.8585270188       14.0535743761        5.7415740309
  C        12.4560219455       12.8905425416        5.0232988766
  C        11.7044583923       12.1719133738        4.0813187454
  C        12.2808139199       11.1096965907        3.3889485450
  C        13.6212398402       10.7395709300        3.6170145748
  C        14.3542285947       11.4427890689        4.5908789186
  C        13.7813629487       12.5077716357        5.2823958319
  C        14.2608308449        9.6489446045        2.8436141845
  C        14.2563771176        9.6569731630        1.4219077374
  C        13.7432176843       10.7590842227        0.6679715582
  C        49.1266258406       21.2332004645        5.8796829831
  C        48.5498542766       22.4010231123        5.1525613993
  C        49.2999962809       23.0685474062        4.1717698504
  C        48.7330603473       24.1076808128        3.4385842780
  C        47.4024176887       24.5091301266        3.6669997020
  C        46.6713313212       23.8600179805        4.6802651223
  C        47.2337752343       22.8151060308        5.4096152717
  C        46.7722519348       25.5868749436        2.8697236385
  C        46.7614024910       25.5573468859        1.4479587163
  C        47.2613803088       24.4422772675        0.7044604034
  C        14.8603405915        8.5706412438        0.7086452659
  C        14.8915036813        8.5969226615        3.5202609110
  C        49.1130017213       21.2034465238       10.1452985610
  C        48.5276197541       22.3647356356       10.8724254766
  C        49.2669414431       23.0256842999       11.8651324415
  C        48.6905616533       24.0601896711       12.5966016132
  C        47.3600308650       24.4567196458       12.3585731974
  C        46.6394837022       23.8114997048       11.3353432603
  C        47.2130691689       22.7756244703       10.6035402030
  C        46.7215976712       25.5316845768       13.1496180147
  C        46.7335822723       25.5281594686       14.5713194984
  C        47.2490688211       24.4289683144       15.3276994855
  C        40.6174417620       17.0816396117       15.3155739148
  C        40.6326543803       17.1017312710       12.5055197897
  C        11.8828162487       14.0865255562       10.2854110834
  C        12.4720961602       12.9105736992       10.9895534521
  C        11.7147106143       12.1776458599       11.9159790111
  C        12.2812716027       11.0951841536       12.5844335870
  C        13.6199672369       10.7211753501       12.3523395270
  C        14.3577598263       11.4363892173       11.3911250136
  C        13.7923502259       12.5175586886       10.7184165126
  C        14.2536658064        9.6245069124       13.1227981629
  C        14.2525247206        9.6445773584       14.5446432528
  C        13.7427081373       10.7535573831       15.2917143797
  C        22.5113764892        3.2441952083        5.7526657932
  C        23.2254507914        4.3494526862        5.0517379316
  C        24.2214545662        4.0686947546        4.1047881180
  C        24.8485472636        5.1076856772        3.4219159109
  C        24.4953356622        6.4497487991        3.6658317632
  C        23.5272270963        6.7220957095        4.6495568140
  C        22.8955510705        5.6848298964        5.3308433344
  C        25.1018062250        7.5554914982        2.8894780105
  C        25.0754740477        7.5473000544        1.4678766512
  C        24.3720386653        6.5486279372        0.7220815987
  C        38.2981898940       31.9276575436        5.8517985907
  C        37.5578196656       30.8389118433        5.1503993208
  C        36.5945673314       31.1451401050        4.1765711490
  C        35.9663178624       30.1266454118        3.4650234961
  C        36.2857843455       28.7754997637        3.7039595101
  C        37.2177145770       28.4768135261        4.7159802828
  C        37.8501585554       29.4942035599        5.4268208009
  C        35.6783643801       27.6865385621        2.9042589730
  C        35.7216120188       27.7006669277        1.4826810769
  C        36.4353462523       28.7012958391        0.7503654366
  C        25.7012051238        8.6154052456        0.7474973766
  C        25.6987092851        8.6309426974        3.5595175994
  C        38.3305352845       31.9612232388       10.1599192190
  C        37.6140611761       30.8889183639       10.9089512993
  C        36.6850922371       31.1991632987       11.9142176370
  C        36.0761484467       30.1824305410       12.6476372748
  C        36.3810331804       28.8288400608       12.3999382394
  C        37.2903184580       28.5286178505       11.3668866793
  C        37.9013636921       29.5418103421       10.6347340149
  C        35.7674083503       27.7303745668       13.1819647074
  C        35.7667732118       27.7234689884       14.6044778407
  C        36.4556906258       28.7131225935       15.3736922361
  C        46.1355856371       26.6207939225       15.2814643084
  C        46.0874830129       26.5799495518       12.4735700294
  C        22.4604775131        3.2550801623       10.2568288233
  C        23.1548275194        4.3636279764       10.9792961543
  C        24.1587460597        4.0769592158       11.9177963510
  C        24.7872812156        5.1068211086       12.6133995843
  C        24.4316776748        6.4523494060       12.3925118499
  C        23.4507492453        6.7324337040       11.4225498986
  C        22.8175817326        5.7027385376       10.7274871764
  C        25.0635665792        7.5496905969       13.1662467109
  C        25.0565089578        7.5435811134       14.5888468456
  C        24.3609323141        6.5480868931       15.3452710006
  C        26.6181439769       17.8628628414        5.7822552019
  C        25.3132981155       17.9076585604        5.0544415243
  C        25.0459945971       18.9119157572        4.1104974083
  C        23.8332769165       18.9304800657        3.4241886614
  C        22.8496321362       17.9489000300        3.6610915114
  C        23.1125268881       16.9667102993        4.6347564432
  C        24.3276897526       16.9422765394        5.3177625494
  C        21.5761230468       17.9351501828        2.8971388866
  C        21.5767517565       17.9194909464        1.4746154609
  C        22.7830771713       17.8056452007        0.7137687899
  C        34.4230460826       17.2222608309        5.9153946049
  C        35.7148698334       17.1553774590        5.1717592146
  C        35.9061454751       16.1919052890        4.1694465471
  C        37.0893572803       16.1649342600        3.4359952871
  C        38.1121242728       17.1021619151        3.6814216559
  C        37.9224320817       18.0458867853        4.7093570618
  C        36.7381545540       18.0766336754        5.4420518443
  C        39.3664136873       17.1032372053        2.8934117566
  C        39.3614449730       17.1112395893        1.4709299882
  C        38.1542046746       17.2326219047        0.7128868598
  C        20.3301634095       17.9344925888        0.7660786866
  C        20.3515326028       17.9335538265        3.5796973690
  C        34.4416421661       17.2386623521       10.1875683239
  C        35.7427260814       17.1365253684       10.9103554013
  C        35.9458013787       16.1579747734       11.8949355343
  C        37.1357690030       16.1261839905       12.6182412301
  C        38.1522093978       17.0715485607       12.3771479903
  C        37.9551552999       18.0226663003       11.3583464403
  C        36.7645737165       18.0597111487       10.6385343623
  C        39.4012870041       17.0864925312       13.1712766327
  C        39.3794946657       17.1021905878       14.5928682101
  C        38.1631403896       17.2256450278       15.3360179971
  C        35.1295649495       26.6449629196       15.3040408748
  C        35.1790830585       26.6610415540       12.4945116310
  C        26.5699737522       17.8278310427       10.3231227666
  C        25.2540568095       17.8752996119       11.0276269435
  C        24.9840702940       18.8898448483       11.9585243876
  C        23.7668427667       18.9158648382       12.6335660897
  C        22.7896747656       17.9278157387       12.3999800144
  C        23.0529123083       16.9386308191       11.4351942909
  C        24.2712994568       16.9101926693       10.7591387044
  C        21.5265763108       17.9104514129       13.1741263837
  C        21.5511608247       17.9057863005       14.5955838307
  C        22.7705155032       17.7992508497       15.3372840808
  C        14.0458676877       17.8287454674       10.2886791137
  C        15.3501073152       17.8855605626       11.0143902287
  C        15.6065317357       18.8890375762       11.9616477752
  C        16.8153504780       18.9098310919       12.6547208096
  C        17.8015886826       17.9300136117       12.4222442722
  C        17.5498741912       16.9505541828       11.4430707199
  C        16.3404376621       16.9251670940       10.7517001188
  C        19.0707502584       17.9140583503       13.1907315238
  C        19.0698488409       17.9118778116       14.6131114795
  C        17.8631051808       17.8101964717       15.3744349474
  C        46.8022768062       17.2168988959       10.1586117618
  C        45.5102307044       17.1478196913       10.9020424295
  C        45.3072268199       16.1656385635       11.8842687988
  C        44.1241539197       16.1374134596       12.6183104439
  C        43.1120208399       17.0912051825       12.3935633757
  C        43.3121934622       18.0527940813       11.3842612843
  C        44.4961391263       18.0849169552       10.6508315195
  C        41.8578563129       17.0935475250       13.1829395308
  C        41.8639685717       17.0944327081       14.6055109200
  C        43.0728769259       17.1915098461       15.3639959149
  C        20.3167136449       17.9265982707       15.3210435786
  C        20.2945691866       17.8949510893       12.5079522487
  C        46.7828453650       17.2310328750        5.8876667147
  C        45.4791357327       17.1228002798        5.1715462795
  C        45.2604207720       16.1208677507        4.2134566194
  C        44.0717011220       16.0893868970        3.4879271483
  C        43.0702788220       17.0567156448        3.7021341744
  C        43.2796936517       18.0288167029        4.6985034718
  C        44.4695186556       18.0666101822        5.4193750087
  C        41.8224340755       17.0738872984        2.9054706384
  C        41.8458144560       17.0831884739        1.4839374532
  C        43.0642459132       17.1830375398        0.7409963039
  C        46.1534325021       26.6372570622        0.7262190683
  C        46.1621750290       26.6559121388        3.5358711219
  C        14.0450422375       17.8310217090        5.7084420343
  C        15.3659694386       17.9038750018        5.0169562897
  C        15.6401691365       18.9192553384        4.0886529397
  C        16.8691803033       18.9556891810        3.4337516086
  C        17.8516300880       17.9758809306        3.6814656822
  C        17.5841455833       16.9890503951        4.6476248854
  C        16.3571019317       16.9521525922        5.3060037863
  C        19.1190538611       17.9515388279        2.9126840510
  C        19.0951618884       17.9294998839        1.4911586584
  C        17.8754393037       17.8179502190        0.7506195358
  C        28.8125927769       14.0920677706       10.3916739995
  C        28.2003808479       12.9148523170       11.0751184590
  C        28.9294379987       12.1603597525       12.0059810642
  C        28.3300735595       11.0850565499       12.6573116782
  C        26.9879218891       10.7397589789       12.4003714315
  C        26.2805343850       11.4731312295       11.4311452166
  C        26.8776543877       12.5490284034       10.7789430822
  C        26.3191559627        9.6598132551       13.1621211133
  C        26.3092973793        9.6850700024       14.5829649320
  C        26.8192672011       10.7955324626       15.3277451957
  C        32.1778705928       21.2449887643       10.1493452092
  C        32.7711802359       22.4121312140       10.8666963121
  C        32.0244336446       23.0869567732       11.8447208032
  C        32.5951494425       24.1264206602       12.5728839395
  C        33.9286180498       24.5188332553       12.3453453550
  C        34.6573041479       23.8629839629       11.3350086472
  C        34.0889444975       22.8185352951       10.6080624759
  C        34.5579693108       25.5916580493       13.1493679244
  C        34.5424294102       25.5617321256       14.5713002110
  C        34.0301290701       24.4458772771       15.3057870238
  C        25.6963629324        8.6097087809       15.3027163184
  C        25.6795540193        8.6108893402       12.4892869635
  C        32.0771904395       21.2044117532        5.8743549384
  C        32.6465237310       22.3643814932        5.1281460706
  C        31.9197188591       23.0027576374        4.1115461289
  C        32.4943483734       24.0428610945        3.3829586811
  C        33.8095882524       24.4728072190        3.6497466216
  C        34.5173149270       23.8466236340        4.6940921940
  C        33.9482310298       22.8038858108        5.4187448987
  C        34.4538544111       25.5562613981        2.8708226027
  C        34.4880499369       25.5440206954        1.4486941966
  C        34.0030988742       24.4375521755        0.6823974094
  C        40.6077076762       17.0810766486        0.7609720396
  C        40.5915960916       17.1005176335        3.5711086952
  C        28.7429015146       14.0651334461        5.8205365486
  C        28.1295711682       12.9225326774        5.0780173374
  C        28.8670817357       12.2230431961        4.1104108827
  C        28.2865885299       11.1677930601        3.4106782361
  C        26.9522272434       10.7843410181        3.6538711382
  C        26.2309450933       11.4724512826        4.6474388519
  C        26.8099321154       12.5287687441        5.3485477808
  C        26.3125114114        9.6921861068        2.8815825724
  C        26.3068708061        9.7021788595        1.4597759834
  C        26.8153073332       10.8048387134        0.7036643765
  C        18.1353584075        3.1808023423       10.3171145124
  C        17.4060018205        4.2780924670       11.0157547662
  C        16.3904756115        3.9997232252       11.9434659606
  C        15.7427418208        5.0396953031       12.6069960737
  C        16.0944241349        6.3834329804       12.3670994187
  C        17.0835427310        6.6529636499       11.4030643183
  C        17.7326226296        5.6156251168       10.7379888933
  C        15.4701734784        7.4911801803       13.1301453068
  C        15.4855632159        7.4905922277       14.5518601038
  C        16.1871914466        6.4970411787       15.3050516411
  C        42.9457902481       31.8593895935       10.0728142114
  C        43.6460876495       30.7717248396       10.8167618886
  C        44.5918450348       31.0930019993       11.8026403679
  C        45.1974784948       30.0874302611       12.5503150896
  C        44.8707528701       28.7343985645       12.3356751643
  C        43.9446559221       28.4201002540       11.3226994840
  C        43.3359076787       29.4252655797       10.5746312249
  C        45.4883913930       27.6551235598       13.1388651314
  C        45.4928137911       27.6808882345       14.5605552073
  C        44.8057727854       28.6889627593       15.3071821816
  C        14.8566563919        8.5631380088       15.2642042315
  C        14.8747232217        8.5628517799       12.4515433390
  C        42.9464055865       31.9614447261        5.8089482403
  C        43.6915701861       30.8853412821        5.0954630118
  C        44.6564622833       31.1912304137        4.1234348361
  C        45.2779708399       30.1716382644        3.4057184888
  C        44.9538764255       28.8213389870        3.6430712031
  C        44.0200064403       28.5236751007        4.6534891989
  C        43.3917456958       29.5404518954        5.3656595789
  C        45.5629962339       27.7239762480        2.8578211887
  C        45.5334070471       27.7173712680        1.4365214090
  C        44.8271181775       28.7076291569        0.6835745417
  C        35.1040914090       26.6347833240        0.7493361578
  C        35.0611143521       26.6147189976        3.5592437520
  C        18.1485139578        3.2468481443        5.7066122929
  C        17.4298404011        4.3437348741        4.9973554670
  C        16.4147729779        4.0524454947        4.0736504638
  C        15.7664467027        5.0830790180        3.3982574460
  C        16.1209213308        6.4283320028        3.6211484521
  C        17.1121097928        6.7117089717        4.5786078003
  C        17.7598055983        5.6828051539        5.2583729071
  C        15.4904639542        7.5240523818        2.8486884801
  C        15.4965817650        7.5075549031        1.4275488076
  C        16.1933652842        6.5058523565        0.6808670988
  H        10.6724291227       12.4662731675        3.9040695086
  H        11.6945715221       10.5514244778        2.6622087416
  H        15.3911060592       11.1678408266        4.7729503336
  H        14.3506565450       13.0707202963        6.0181716563
  H        13.3761023505       11.6311706286        1.2012740495
  H        50.3227761778       22.7486699550        3.9871730186
  H        49.3195927736       24.6231047528        2.6811526756
  H        45.6417235306       24.1605365365        4.8632136922
  H        46.6625881921       22.2896782594        6.1714518683
  H        47.6298197341       23.5758510465        1.2461340383
  H        14.8715832677        8.5880248792        4.6085625110
  H        50.2870769844       22.7030412144       12.0598895877
  H        49.2689897292       24.5758379006       13.3599448127
  H        45.6099445904       24.1084317265       11.1465234130
  H        46.6520634580       22.2532156718        9.8322759699
  H        47.6077453441       23.5518016320       14.7968125567
  H        40.6379086975       17.0677650198       11.4176913775
  H        48.6869152477       14.0950039651        7.7999502586
  H        10.6813207293       12.4669013322       12.0935803869
  H        11.6895161495       10.5249785136       13.2973156588
  H        15.3930567728       11.1582033771       11.2048907233
  H        14.3645348563       13.0866725342        9.9895672024
  H        13.3757728432       11.6221161846       14.7530618906
  H        47.9300362559       14.2182880224        9.7107540688
  H        47.7798576369       14.3733665015        6.4950557667
  H        49.0824271563       18.5519894720       10.8669401232
  H        10.4155667768       14.1344301098        7.9987162742
  H        24.4818948907        3.0299019838        3.9143350142
  H        25.6212049518        4.8895069591        2.6878666253
  H        23.2468074479        7.7551979081        4.8441896908
  H        22.1259654875        5.8857051656        6.0721623034
  H        23.8095040500        5.7930766235        1.2627419786
  H        36.3633241597       32.1891168779        3.9786597748
  H        35.2206375056       30.3689895193        2.7109870559
  H        37.4721303239       27.4367058166        4.9092763577
  H        38.5954766342       29.2697240813        6.1862449483
  H        36.9974782641       29.4502816692        1.3004612860
  H        25.7318376952        8.6154355480        4.6474209091
  H        36.4598278640       32.2436377885       12.1175932037
  H        35.3493685441       30.4297481190       13.4182662009
  H        37.5391052886       27.4881246069       11.1687829408
  H        38.6243539994       29.3135826442        9.8553629253
  H        37.0344506463       29.4707595114       14.8531201676
  H        46.1086100736       26.5871825093       11.3855277753
  H        44.6681473958       35.1160570843        7.8139679282
  H        24.4369865468        3.0386296638       12.0834533470
  H        25.5694890199        4.8781904056       13.3341299950
  H        23.1650905501        7.7670070199       11.2435451629
  H        22.0443285339        5.9152915895        9.9928561009
  H        23.7893687316        5.7926259575       14.8139150766
  H        44.9534295562       34.3900116169        9.6949099099
  H        44.9015407829       34.2067182397        6.4905860382
  H        40.6659204734       33.2087379749       10.8529945974
  H        23.1504184945        1.9574204043        8.0050077754
  H        25.7973163348       19.6774344187        3.9312492866
  H        23.6317597836       19.7159140392        2.6988442818
  H        22.3648685769       16.1997928672        4.8268666516
  H        24.5409253183       16.1709215272        6.0541821682
  H        23.7248936828       17.6936297449        1.2430658081
  H        35.1094110667       15.4788124221        3.9715277650
  H        37.2354566517       15.4093237218        2.6672930315
  H        38.7026919270       18.7788086274        4.9039649347
  H        36.5765089267       18.8205642696        6.2187201281
  H        37.2147035914       17.3625439779        1.2427815432
  H        20.3582359133       17.9703940010        4.6676742463
  H        35.1534847857       15.4393867777       12.0917339139
  H        37.2904515772       15.3643642964       13.3791982112
  H        38.7324394674       18.7592771784       11.1658044747
  H        36.5927113447       18.8131168529        9.8736125911
  H        37.2303980386       17.3489941606       14.7931370614
  H        35.1574055293       26.6883630876       11.4067073014
  H        28.5079464074       21.0821844597        7.9779112173
  H        25.7399203820       19.6520387937       12.1338017772
  H        23.5573958153       19.7066548731       13.3507386633
  H        22.3061358014       16.1695017614       11.2487576220
  H        24.4908996793       16.1347930071       10.0290507797
  H        23.7024589154       17.6821744688       14.7922576860
  H        29.0085533159       21.7193629315        9.7590693426
  H        29.1515583252       21.7474874069        6.6209307538
  H        32.0842938974       18.5528313093       11.0008545834
  H        27.4066291245       19.0812132954        8.0852598245
  H        14.8480620130       19.6481638045       12.1393654186
  H        17.0107941765       19.6941645495       13.3828410434
  H        18.3010273822       16.1861422182       11.2549200560
  H        16.1340885664       16.1558930503       10.0113575301
  H        16.9208516494       17.6929383169       14.8470625409
  H        46.0939690707       15.4372340926       12.0660581140
  H        43.9695480534       15.3675955026       13.3711837081
  H        42.5398678027       18.7979212824       11.2048854713
  H        44.6646619865       18.8422523128        9.8887071463
  H        44.0144810254       17.3046119062       14.8343413241
  H        20.2879895478       17.9220421439       11.4197590502
  H        46.0377599210       15.3805155574        4.0385771171
  H        43.9064452700       15.3111252657        2.7460174778
  H        42.5125881597       18.7807461141        4.8716154496
  H        44.6503629860       18.8364157497        6.1656073523
  H        43.9994367385       17.2884866858        1.2832757458
  H        46.1987807408       26.6823274552        4.6233278820
  H        52.7410252802       21.0626258829        8.1946633557
  H        14.8803012292       19.6737172360        3.8971244515
  H        17.0809540574       19.7461876942        2.7169644415
  H        18.3338528042       16.2259370234        4.8463978298
  H        16.1351464580       16.1775566854        6.0360310052
  H        16.9424324741       17.7066671123        1.2948673377
  H        52.3222708792       21.6731916900        6.2943374851
  H        52.0132061976       21.7020868048        9.4956873459
  H        49.0664533989       18.6074868434        5.2043729562
  H        13.2471222687       19.0165881691        7.9771294068
  H        29.9638935902       12.4315274439       12.2045076868
  H        28.8965639627       10.4990976823       13.3779541222
  H        25.2436686848       11.2154853618       11.2250831035
  H        26.3295216427       13.1368728553       10.0467670145
  H        27.1883003051       11.6604257756       14.7847663048
  H        31.0013658233       22.7694002949       12.0312349620
  H        32.0108598149       24.6476614020       13.3279942894
  H        35.6893323272       24.1559359689       11.1531373219
  H        34.6581787834       22.2866680285        9.8491643997
  H        33.6806906341       23.5756288471       14.7576181986
  H        25.7071715999        8.5922224234       11.4012199484
  H        30.9092303070       22.6638551256        3.8945622396
  H        31.9228431155       24.5369827664        2.6003612634
  H        35.5356938853       24.1650947618        4.9068367716
  H        34.5023357256       22.2992913015        6.2065411645
  H        33.6328567461       23.5602862449        1.2053974756
  H        40.5856399622       17.0666413746        4.6589308644
  H        32.5096974699       14.1527240446        8.2521867777
  H        29.8986394040       12.5156133784        3.9280087716
  H        28.8674731293       10.6197767361        2.6718799370
  H        25.1984462125       11.1894161920        4.8419803410
  H        26.2505339590       13.0743336732        6.1049140841
  H        27.1794502425       11.6776210851        1.2374241185
  H        33.3025720388       14.2177185482        6.4513707527
  H        33.4066975093       14.4033129800        9.6016582946
  H        32.0984165133       18.5298820853        5.1547017437
  H        30.2289065534       14.1943616871        8.0779435069
  H        16.1185717605        2.9632010932       12.1300176937
  H        14.9534145149        4.8202572411       13.3227772644
  H        17.3656927252        7.6858678284       11.2096985700
  H        18.5143883229        5.8182475048       10.0098414387
  H        16.7536649615        5.7396357851       14.7715548011
  H        44.8283313272       32.1400575987       11.9766879104
  H        45.9374820061       30.3411186336       13.3061449267
  H        43.6816106092       27.3780782179       11.1528314132
  H        42.5990586335       29.1899207008        9.8101899716
  H        44.2303334277       29.4366737329       14.7688888738
  H        14.8507552991        8.5459384621       11.3633287471
  H        44.9002466008       32.2338911888        3.9321998031
  H        46.0250846923       30.4128209465        2.6526742871
  H        43.7626522952       27.4839814689        4.8447336731
  H        42.6449089284       29.3176090756        6.1237625590
  H        44.2685499044       29.4704676952        1.2181663606
  H        35.0081378006       26.6287758071        4.6462685005
  H        36.6050205969       35.1338902345        8.1807147892
  H        16.1438143549        3.0128518709        3.9038151063
  H        14.9741990381        4.8561853210        2.6880986053
  H        17.3953666026        7.7472067389        4.7557152195
  H        18.5425005388        5.8932272727        5.9833392756
  H        16.7647167610        5.7555628396        1.2193268041
  H        36.2784774730       34.4822708073        6.2732412423
  H        36.3804322949       34.2092354196        9.4998304657
  H        40.5787222504       33.2013056041        5.1541533427
  H        17.4707120999        1.9467059196        7.9739809036
  H        28.9647847908       19.3385041311       12.5134396238
  H        28.7914741272       19.1785610838        3.7589727659
  H        31.1055287511       15.4521265551        3.7762218759
  H        31.3292414628       15.6778805389       12.5820575660
  H        28.1382266559       17.7607920923       14.6779069410
  H        29.9332714649       15.8719140200       14.9744745084
  H        31.8331523142       19.3018149451        1.2459454297
  H        29.1713432406       15.5340814912        1.4120129775
  H        33.5144827358       18.8052736354       16.2397035063
  H        18.8530896059        0.8689003855       12.3351947323
  H        40.5279645203       35.2292470141        3.9522502215
  H        42.3231753553       34.4182525592        3.5911429538
  H        22.0877625283        0.6917961957       12.3514777523
  H        11.5969156935       18.7129605476       12.3822653106
  H        52.2648520006       18.4307607467        3.6776157073
  H        49.2545874500       16.4770955072        3.5847070662
  H        10.1501619595       15.7982273874       12.2928147723
  H        50.8497353012       17.6925624358        3.9542791740
  H        10.0459575155       17.3945705909       12.0520060372
  H        20.2142622455        0.0020976935       12.0420449891
  H        39.1834656661       36.1243677608        3.6864584390
 Ni        29.8493906834       17.2818030472        2.9950420105
 Ni        31.7083790767       17.3719899262       -0.3329918591
 Ni        29.8382041953       18.6567206925        0.2543438757
 Ni        30.2236867225       17.5469194391       13.3233586284
  O        10.6498415878       14.3651829998        5.4857896884
  O        12.6131163619       14.6575424731        6.5838717818
  O        49.1476468074       16.8460161117        7.9897231748
  O        50.3501889878       20.9359034175        5.6481680442
  O        48.3485229930       20.5932500364        6.6659913455
  O        11.0512452164       17.0540275858        6.5005854086
  O        50.3208909471       20.8816656125       10.4068001443
  O        48.3466818947       20.5866610239        9.3270627897
  O        49.5434807049       18.2484382626       10.0682480388
  O        12.3587915901       18.6245757687        7.9997033618
  O        48.6931629371       14.1486699369        6.7512517989
  O         8.2098333064       14.2104313211        9.3225604711
  O        10.7353261812       14.5067663860       10.6643269848
  O        12.5717873513       14.5828516377        9.3284831222
  O        22.8446117279        2.0432285679        5.4870823501
  O        21.6055450706        3.5924168079        6.5895528480
  O        42.0579281767       34.1370592574        7.9788861389
  O        37.9813516383       33.1365329387        5.5724734824
  O        39.2173811681       31.5752033013        6.6660125352
  O        20.3083105527        1.0393341921        6.5019261049
  O        38.0246714816       33.1855184915       10.4154224675
  O        39.2186648039       31.5833311703        9.3271365436
  O        40.6521926465       33.7691558901       10.0601702662
  O        18.2555564168        1.3757621283        7.9967600246
  O        44.6222196211       35.1005384035        6.7587378721
  O        24.2053631018       -0.0000129941        9.3208035166
  O        22.7529171414        2.0574314868       10.5835916553
  O        21.6242117017        3.5958452560        9.3421646713
  O        27.4967954216       18.7554777959        5.4961753564
  O        26.7612955167       16.9387754631        6.6526290854
  O        30.6612290719       19.4088561611        8.0738859951
  O        33.5457341280       16.3317554891        5.6615730950
  O        34.2737569631       18.1845516665        6.7443372822
  O        29.5667772664       17.0676794318        6.5829135205
  O        33.5557657531       16.3400824023       10.4152258950
  O        34.3012262090       18.2412615231        9.4093663862
  O        31.6481816369       18.3209135046       10.1634748940
  O        30.3229305128       15.1608626937        8.0888108609
  O        28.5519770828       21.0341987849        6.9047581110
  O        28.5142481570       20.9562976424        9.4135093762
  O        27.4561632636       18.6796549308       10.6593697649
  O        26.6938360517       16.9292347992        9.4129762372
  O        13.1484766102       18.6930393174       10.5874068068
  O        13.9192714129       16.9161926405        9.4049315503
  O        50.5955634026       19.3501103313        8.0203800242
  O        47.6827711945       16.3271323807       10.4173868591
  O        46.9500521940       18.1754590409        9.3258689780
  O        11.0694076932       17.0156891677        9.4896824176
  O        47.6747233690       16.3359395818        5.6527875698
  O        46.9251130567       18.2357796298        6.6633362854
  O        49.5682862702       18.3177530157        5.9822775349
  O        10.3184970014       15.1003075392        7.9970950511
  O        52.6707230565       21.0278823046        9.2418267968
  O        12.1468049398       20.8911332367        6.6732055491
  O        13.1083119056       18.6135849319        5.3255358273
  O        13.9572092555       16.9869081973        6.6654689582
  O        29.9952410857       14.4440716597       10.7322056932
  O        28.0902346998       14.6538234052        9.4958193597
  O        32.0977251706       16.9002365742        8.0853845119
  O        30.9642917519       20.9527418089       10.4111916851
  O        32.9457825370       20.6073899875        9.3423296474
  O        29.5642568740       17.0792168917        9.5776761493
  O        30.8490964910       20.8898214280        5.6581942321
  O        32.8690569801       20.5908572952        6.6640877895
  O        31.6472172883       18.2993914582        5.9833639206
  O        28.2900183682       18.6779363468        8.0795094876
  O        32.4898245048       14.2160374815        9.3295252475
  O        32.4048460196       14.2186543940        6.8234299079
  O        29.9166551401       14.4329300023        5.4936836917
  O        28.0374681197       14.5893449213        6.7532297832
  O        17.8891774407        1.9665523587       10.6628132658
  O        18.9561975605        3.5270914204        9.4079676008
  O        39.1686435688       34.1386381455        7.9970875976
  O        43.2801882302       33.0588796338       10.3316518787
  O        42.0344114518       31.5064604919        9.2415597706
  O        20.3174760986        1.0365352305        9.4802829281
  O        43.2760496956       33.1825038793        5.5748828604
  O        42.0052498899       31.5841053830        6.5830080791
  O        40.5789455764       33.7748050153        5.9356925384
  O        22.3671523130        1.3844283379        7.9978776771
  O        36.6727510166       35.0997022863        9.2333148831
  O        16.4455640589        0.0641202057        6.6682303098
  O        17.9364529602        2.0433391502        5.3263622552
  O        18.9190172892        3.5931105810        6.6659130292
  O        29.6958277073       18.8997063909        4.0003703261
  O        29.7495425319       18.9621732252       12.0746783170
  O        31.1700957277       16.3439544800        4.1641368799
  O        31.2623327689       16.4953688791       12.0545784509
  O        30.0389793807       15.6791822880        1.8312394171
  O        30.7595441487       16.1938810854       14.5737973586
  O        32.7921130877       18.3884969789       16.7396532631
  O        30.8813794141       19.7811911966        1.4219466179
  O        28.9405293318       18.3085303902       14.6515127823
  O        39.4568064015       35.2437981515        4.0019677461
  O        19.1410598386        0.0044199336       11.9905760996
  O        41.9697783370       35.1729767922        4.0872158277
  O        21.6911756979       -0.0694672382       11.8957666272
  O        51.3650282482       18.6142556627        4.0054647525
  O        10.7510473469       18.7472335076       11.9048819647
  O        50.0791479188       16.4128255090        4.0917981071
  O         9.5243785743       16.4831062224       11.9912271325
 Zr         9.2959719087       16.0529608426        6.1822715885
 Zr        49.8356596559       16.0068824756        9.7465970806
 Zr        22.0730853708        0.0292234704        6.1891267881
 Zr        42.4606369768       35.1528067401        9.8007259838
 Zr        29.6034298763       19.0986637122        6.3085810003
 Zr        29.5796575883       19.1733577233        9.8900695313
 Zr        11.0372335651       19.0521999847        9.8275680262
 Zr        11.0431587720       19.1550018085        6.2513022045
 Zr        31.3412775286       16.1158414436        9.8930009581
 Zr        31.3847522279       16.0306631340        6.2951766859
 Zr        18.6007810346       -0.0021402474        9.7634390738
 Zr        18.5062742174       -0.0085032522        6.2135008652
 Zr        12.3011735468       16.3235930816        7.9902481159
 Zr        48.6149315045       18.8328268008        8.0102369214
 Zr        20.3146819602        2.4726137995        7.9904298258
 Zr        40.6427193609       32.6861700822        7.9780163759
 Zr        28.3458824944       16.3393051420        8.0845072879
 Zr        32.6306490885       18.8569882843        8.0570466608
  H        29.1092415462       17.9513055888        1.7586113452
  H        30.6158399643       16.0960504481        1.1100870841
  H        30.6354318279       19.6288089717        2.3680261226
