     566
 i =       21, E =     -4712.2482832980
  C        11.8584731527       14.0535704585        5.7416114679
  C        12.4560176969       12.8905163158        5.0233264672
  C        11.7045187657       12.1718269576        4.0813390082
  C        12.2809191304       11.1095883592        3.3890225073
  C        13.6213715619       10.7394961583        3.6170503176
  C        14.3543251567       11.4428025227        4.5908865469
  C        13.7813804397       12.5077663897        5.2823948784
  C        14.2609648182        9.6488362889        2.8436422081
  C        14.2561228610        9.6566362535        1.4219196907
  C        13.7428935929       10.7587127344        0.6679869283
  C        49.1264168664       21.2332253621        5.8799169469
  C        48.5494630462       22.4009921981        5.1526705906
  C        49.2996310372       23.0685968886        4.1719740346
  C        48.7326628080       24.1076489264        3.4386840987
  C        47.4019649135       24.5089266264        3.6669770449
  C        46.6707988442       23.8596661064        4.6800790392
  C        47.2332756643       22.8148031996        5.4094923737
  C        46.7718119505       25.5866933860        2.8697026155
  C        46.7609380467       25.5571860433        1.4479356891
  C        47.2608616387       24.4420855925        0.7044452616
  C        14.8599861631        8.5702555285        0.7086326749
  C        14.8919425671        8.5969557078        3.5202538669
  C        49.1129823116       21.2033008059       10.1452903762
  C        48.5276137149       22.3647463855       10.8723900316
  C        49.2669023760       23.0255086987       11.8652303949
  C        48.6906156391       24.0600646699       12.5967268590
  C        47.3601927501       24.4568229138       12.3585416924
  C        46.6397103697       23.8118451674       11.3351185035
  C        47.2131969662       22.7758846873       10.6033351461
  C        46.7217780260       25.5318144701       13.1495928391
  C        46.7333910600       25.5281303999       14.5713057085
  C        47.2487045684       24.4288492084       15.3276788730
  C        40.5833425101       17.0801039359       15.2861000333
  C        40.5687435728       17.0788854459       12.4738537046
  C        11.8825823410       14.0864967371       10.2854480629
  C        12.4716711267       12.9103784956       10.9895227417
  C        11.7142267180       12.1776254171       11.9160481698
  C        12.2806422192       11.0950788914       12.5844957435
  C        13.6192422503       10.7207686651       12.3523029820
  C        14.3570639532       11.4357769214       11.3909519393
  C        13.7918035568       12.5170344055       10.7182386542
  C        14.2528412623        9.6240249902       13.1227746533
  C        14.2518194724        9.6440724515       14.5446348161
  C        13.7421221638       10.7530824696       15.2917310862
  C        22.5099016769        3.2438358953        5.7482460730
  C        23.2209825527        4.3446664186        5.0373135733
  C        24.2190620693        4.0559793962        4.0945414934
  C        24.8508327727        5.0886762907        3.4063832108
  C        24.5003066777        6.4333640950        3.6396034577
  C        23.5261996084        6.7134816624        4.6156613056
  C        22.8905125376        5.6825811309        5.3032031188
  C        25.1211270377        7.5353424188        2.8684095707
  C        25.1185978833        7.5273147855        1.4462187332
  C        24.4285888579        6.5289739121        0.6881102446
  C        38.2978304089       31.9276789560        5.8516254262
  C        37.5555940113       30.8393516344        5.1498965261
  C        36.5913221239       31.1474084585        4.1775298308
  C        35.9597813660       30.1305494130        3.4663766621
  C        36.2763583956       28.7783694109        3.7038839595
  C        37.2099518990       28.4777917913        4.7140382012
  C        37.8457066207       29.4937517444        5.4244837776
  C        35.6645237369       27.6912009956        2.9044338539
  C        35.7047844816       27.7058354296        1.4823188124
  C        36.4208253898       28.7043967114        0.7501298696
  C        25.7541852961        8.5968999084        0.7365082113
  C        25.7115308444        8.6082777172        3.5485987713
  C        38.3312652039       31.9606756128       10.1603882266
  C        37.6171744011       30.8863173260       10.9098807763
  C        36.6834662494       31.1930879417       11.9118104801
  C        36.0767359297       30.1742219082       12.6442366716
  C        36.3886227179       28.8214396982       12.3995787598
  C        37.3035030225       28.5246467903       11.3704229132
  C        37.9118274954       29.5400276234       10.6389283584
  C        35.7751463821       27.7222256381       13.1806329050
  C        35.7608214315       27.7219319358       14.6036660357
  C        36.4458361964       28.7135277391       15.3733177426
  C        46.1354211888       26.6208011015       15.2814357597
  C        46.0879088508       26.5802242429       12.4735423586
  C        22.4739478347        3.2592796397       10.2565647457
  C        23.1953253669        4.3646833251       10.9648994246
  C        24.2100938547        4.0701276062       11.8904664234
  C        24.8628884896        5.0935874303       12.5753256769
  C        24.5238028785        6.4451479172       12.3609350875
  C        23.5336915978        6.7329726804       11.4016753720
  C        22.8768953088        5.7095810487       10.7159482568
  C        25.1681896964        7.5359664518       13.1416048308
  C        25.1438273082        7.5269640582       14.5654922110
  C        24.4380261017        6.5304148675       15.3112129082
  C        26.5610733919       17.8258210303        5.7826788234
  C        25.2608453580       17.8841786874        5.0566158085
  C        25.0129307908       18.8869614522        4.1064997308
  C        23.8036948654       18.9155357281        3.4163800582
  C        22.8105147959       17.9445707475        3.6550159259
  C        23.0541633735       16.9653891668        4.6360611252
  C        24.2646281907       16.9316309026        5.3246710469
  C        21.5452154008       17.9371649116        2.8827275671
  C        21.5567841703       17.9287044839        1.4609224791
  C        22.7678507991       17.8022295864        0.7100947502
  C        34.4452518024       17.1866787406        5.9511714292
  C        35.7342879276       17.1353929774        5.1999922954
  C        35.9340141767       16.1675682073        4.2020999160
  C        37.1086365543       16.1564840265        3.4537181299
  C        38.1219924651       17.1093296685        3.6816649418
  C        37.9253267620       18.0565119822        4.7058326903
  C        36.7466339510       18.0755066756        5.4493358350
  C        39.3701191384       17.1198166838        2.8809339880
  C        39.3513525753       17.1199442667        1.4572283554
  C        38.1375455559       17.2384171627        0.7119658035
  C        20.3156364852       17.9593994338        0.7446433137
  C        20.3173655622       17.9330220822        3.5573513650
  C        34.3086485971       17.2064952026       10.2758023894
  C        35.6195293302       17.1023400092       10.9716902723
  C        35.8360972043       16.1514887039       11.9832716912
  C        37.0472030075       16.1199511582       12.6710524028
  C        38.0775223023       17.0384746292       12.3777264276
  C        37.8664314579       17.9553702564       11.3282225058
  C        36.6572165416       17.9916985970       10.6398977845
  C        39.3411510821       17.0655624859       13.1521633650
  C        39.3365489276       17.0941670070       14.5765868480
  C        38.1308402528       17.2268297975       15.3344027327
  C        35.1158453276       26.6478983214       15.3034387119
  C        35.1997262595       26.6454250140       12.4933236244
  C        26.5852519175       17.7955482567       10.3341783482
  C        25.2766189741       17.8649075183       11.0418884128
  C        25.0279587762       18.8723032969       11.9866401530
  C        23.8065980306       18.9175668653       12.6536003446
  C        22.8073763751       17.9561771301       12.3995021008
  C        23.0526030611       16.9750266877       11.4217705734
  C        24.2727805366       16.9276119011       10.7524174789
  C        21.5388840907       17.9510818130       13.1635296374
  C        21.5532946819       17.9357568429       14.5847147197
  C        22.7656907048       17.8049679984       15.3338901648
  C        14.0484585361       17.8343778414       10.2825424752
  C        15.3587328457       17.9060171601       10.9950877995
  C        15.6192184063       18.9263237534       11.9230374169
  C        16.8319986463       18.9605227392       12.6082260973
  C        17.8170583962       17.9769915555       12.3878363207
  C        17.5627958065       16.9824559975       11.4248245297
  C        16.3496754914       16.9442990133       10.7402963725
  C        19.0832383656       17.9655620528       13.1611994701
  C        19.0715705139       17.9599096156       14.5833427512
  C        17.8581964210       17.8636655059       15.3348388295
  C        46.7916032806       17.2122827635       10.1528274903
  C        45.4842568099       17.1327444800       10.8761278275
  C        45.2682932196       16.1511475908       11.8569997660
  C        44.0748644265       16.1192588979       12.5761673887
  C        43.0584997689       17.0679639586       12.3415656825
  C        43.2691825278       18.0242294957       11.3283813594
  C        44.4640912937       18.0604791826       10.6100248592
  C        41.8033391781       17.0769026850       13.1367138767
  C        41.8225966314       17.0903784223       14.5618218096
  C        43.0377046936       17.1988132035       15.3077661055
  C        20.3131252727       17.9625625581       15.3002557271
  C        20.3116210855       17.9451605799       12.4876715359
  C        46.7834052524       17.2360082158        5.8784613021
  C        45.4864686157       17.1397022372        5.1456305646
  C        45.2769998327       16.1562421735        4.1657370311
  C        44.0929865732       16.1329083960        3.4311585753
  C        43.0820848695       17.0886760361        3.6573106074
  C        43.2850826898       18.0450522776        4.6713914893
  C        44.4706739714       18.0757470706        5.4002173826
  C        41.8286757746       17.1029210361        2.8671748132
  C        41.8361130593       17.1022746276        1.4435965442
  C        43.0443052300       17.2021903093        0.6856713437
  C        46.1530921052       26.6371699647        0.7261998655
  C        46.1619283539       26.6558342461        3.5358483679
  C        14.0396126513       17.8281476460        5.7052350549
  C        15.3524989267       17.8974295215        5.0022527514
  C        15.6217458483       18.9226841792        4.0835677502
  C        16.8448115330       18.9619887676        3.4189276956
  C        17.8234498354       17.9747786600        3.6483864209
  C        17.5592757537       16.9743743773        4.6011617272
  C        16.3385842430       16.9350534412        5.2699919556
  C        19.0907054605       17.9598443248        2.8820730744
  C        19.0755936050       17.9555000842        1.4607747867
  C        17.8603347788       17.8611273327        0.7112107015
  C        28.8232820825       14.1560337151       10.4209816906
  C        28.2571110900       12.9698992656       11.1202293459
  C        28.9834257176       12.2602097786       12.0888741144
  C        28.4094946913       11.1583204064       12.7221211494
  C        27.0958634159       10.7425035264       12.4163823456
  C        26.3958721092       11.4356222622       11.4118752888
  C        26.9657260201       12.5334153694       10.7757124652
  C        26.4324181329        9.6467948347       13.1627244630
  C        26.3937366547        9.6723232501       14.5838525897
  C        26.8709843298       10.7905279576       15.3390348955
  C        32.1869230599       21.2380735064       10.1392566300
  C        32.7847401345       22.4036015339       10.8538237732
  C        32.0208028767       23.1236241980       11.7873878788
  C        32.5935970026       24.1561086553       12.5232119949
  C        33.9460370205       24.5057338136       12.3429683603
  C        34.6931749699       23.8095191846       11.3736828204
  C        34.1240250725       22.7672912769       10.6433116571
  C        34.5688434991       25.5822421012       13.1485180476
  C        34.5302077843       25.5636782372       14.5704458616
  C        33.9992093514       24.4573516764       15.3051264732
  C        25.7731618463        8.5923363637       15.2912003409
  C        25.8017965972        8.5966051290       12.4781012770
  C        32.0738588525       21.2004374346        5.8721905091
  C        32.6435586044       22.3627914723        5.1319121861
  C        31.9083087220       23.0060928494        4.1240751952
  C        32.4767615859       24.0498231503        3.3962137457
  C        33.7947586365       24.4782057761        3.6528741520
  C        34.5108305182       23.8468759713        4.6886625815
  C        33.9474222454       22.8012156382        5.4142238629
  C        34.4345427165       25.5632612289        2.8717677808
  C        34.4623153665       25.5537342860        1.4487369833
  C        33.9669490509       24.4523940910        0.6821414270
  C        40.5899675234       17.0896772052        0.7332374385
  C        40.6029257636       17.1287364919        3.5447197136
  C        28.7387200623       14.0557695011        5.8166571447
  C        28.1338546823       12.9063176160        5.0835074905
  C        28.8725833372       12.2182210502        4.1086196907
  C        28.2987867892       11.1577373573        3.4123198920
  C        26.9694523606       10.7603946274        3.6618826067
  C        26.2481680685       11.4363184722        4.6641294058
  C        26.8208810201       12.4963924806        5.3644160531
  C        26.3346828942        9.6710729543        2.8817811877
  C        26.3434089866        9.6857206058        1.4597274707
  C        26.8451732039       10.7982893063        0.7145092425
  C        18.1355150846        3.1809964438       10.3171038699
  C        17.4058953821        4.2781330600       11.0154363644
  C        16.3902431818        3.9995373840       11.9429940469
  C        15.7423321686        5.0393440539       12.6065627933
  C        16.0939150491        6.3831680368       12.3669081237
  C        17.0831335098        6.6529092828       11.4030231041
  C        17.7324838625        5.6157453738       10.7379206879
  C        15.4694460356        7.4907394475       13.1300548446
  C        15.4848822254        7.4900956882       14.5517828198
  C        16.1866200754        6.4965939899       15.3049341998
  C        42.9458277352       31.8596288867       10.0728443852
  C        43.6462486414       30.7719673173       10.8167396458
  C        44.5915167234       31.0933127923       11.8030611122
  C        45.1972561354       30.0877761131       12.5507068337
  C        44.8711574692       28.7346637515       12.3356094457
  C        43.9456578536       28.4203128597       11.3220861323
  C        43.3368256327       29.4254384500       10.5740420010
  C        45.4887042024       27.6553621609       13.1388124810
  C        45.4928126093       27.6809883423       14.5605102282
  C        44.8057666261       28.6890552116       15.3071502772
  C        14.8559629199        8.5626108897       15.2641763457
  C        14.8740022556        8.5624421240       12.4514943321
  C        42.9464276086       31.9616070372        5.8089501826
  C        43.6915772868       30.8854627963        5.0954806550
  C        44.6562072821       31.1913197032        4.1231864890
  C        45.2776820566       30.1716996063        3.4054712768
  C        44.9538461019       28.8213796701        3.6430791182
  C        44.0203553082       28.5237716341        4.6538778131
  C        43.3921372327       29.5405643281        5.3660526152
  C        45.5628089001       27.7239533004        2.8578140672
  C        45.5331956489       27.7173562545        1.4365126201
  C        44.8269962649       28.7076624372        0.6835461575
  C        35.0838547608       26.6414934858        0.7490336615
  C        35.0476389823       26.6190127874        3.5593451952
  C        18.1490668103        3.2469815168        5.7069217189
  C        17.4305191998        4.3438607330        4.9975666007
  C        16.4153064474        4.0525507416        4.0739886464
  C        15.7669447465        5.0831134840        3.3985372066
  C        16.1215101217        6.4284054346        3.6211395743
  C        17.1129103498        6.7118309710        4.5783821154
  C        17.7606382323        5.6829797761        5.2582295824
  C        15.4908115486        7.5240224692        2.8486708253
  C        15.4964170057        7.5072565502        1.4275153358
  C        16.1930947949        6.5055405036        0.6807551553
  H        10.6724871035       12.4661513804        3.9040403582
  H        11.6946859629       10.5512987513        2.6622895622
  H        15.3912466124       11.1679952076        4.7729380809
  H        14.3506617536       13.0706670990        6.0182237006
  H        13.3760044129       11.6309032003        1.2012722962
  H        50.3224695585       22.7488130784        3.9875279153
  H        49.3192229322       24.6231317379        2.6813122663
  H        45.6411211573       24.1600450003        4.8628504393
  H        46.6620955147       22.2891332362        6.1711722913
  H        47.6292432159       23.5756406919        1.2461377206
  H        14.8724265758        8.5882740911        4.6085650454
  H        50.2869431395       22.7026247701       12.0601024329
  H        49.2690325628       24.5755115356       13.3602177868
  H        45.6102586266       24.1089944928       11.1461715797
  H        46.6522393858       22.2535161783        9.8320033123
  H        47.6074233028       23.5517119199       14.7967656858
  H        40.5633199527       17.0350812851       11.3861331392
  H        48.6864004081       14.0954155678        7.7996706220
  H        10.6809280597       12.4671212389       12.0937833417
  H        11.6888449741       10.5250681205       13.2974963231
  H        15.3923133056       11.1574520611       11.2046486068
  H        14.3640810892       13.0859783927        9.9893252543
  H        13.3752541376       11.6216837766       14.7531028143
  H        47.9297962396       14.2192879627        9.7114388041
  H        47.7797148074       14.3733846143        6.4944941140
  H        49.0795637151       18.5503143236       10.8662534033
  H        10.4151945767       14.1345649784        7.9991624353
  H        24.4794192169        3.0155710266        3.9132223611
  H        25.6274164869        4.8633168243        2.6786725891
  H        23.2465224890        7.7484089521        4.8015106185
  H        22.1187653927        5.8908153500        6.0403092987
  H        23.8586918619        5.7717808116        1.2188354016
  H        36.3615259513       32.1918884961        3.9805263628
  H        35.2132224919       30.3753138939        2.7139651476
  H        37.4633009080       27.4372281494        4.9063532997
  H        38.5920021819       29.2671530141        6.1823753450
  H        36.9826376511       29.4535472379        1.3003403254
  H        25.7309534856        8.5893958277        4.6367708807
  H        36.4522881779       32.2366817689       12.1132243843
  H        35.3458114190       30.4193670517       13.4116422135
  H        37.5591839588       27.4853651903       11.1747070287
  H        38.6388054951       29.3142965438        9.8625414967
  H        37.0276591025       29.4692868770       14.8535097606
  H        46.1093983827       26.5876230349       11.3855069057
  H        44.6682605559       35.1160132824        7.8139996316
  H        24.4777235016        3.0290735540       12.0570347934
  H        25.6500902901        4.8529778063       13.2867868807
  H        23.2568786821        7.7701725721       11.2235274601
  H        22.0973067027        5.9343835717        9.9914951470
  H        23.8751423374        5.7746847246       14.7712140813
  H        44.9534246333       34.3901420985        9.6950670759
  H        44.9012849398       34.2067784792        6.4905008480
  H        40.6664332247       33.2097094498       10.8534828564
  H        23.1515735997        1.9577483097        8.0038908146
  H        25.7775824809       19.6385324681        3.9240342799
  H        23.6132716562       19.6974477490        2.6844447252
  H        22.2969757212       16.2075294982        4.8262856983
  H        24.4673985206       16.1619693631        6.0655507633
  H        23.7039165429       17.6680047764        1.2445746600
  H        35.1506328328       15.4360068210        4.0179965221
  H        37.2562092248       15.3988301076        2.6871569752
  H        38.6956711934       18.8027965562        4.8891556300
  H        36.5823978043       18.8260911655        6.2190307192
  H        37.2041098964       17.3729489194        1.2510942418
  H        20.3167508302       17.9607167508        4.6455362348
  H        35.0400907188       15.4528463491       12.2314452726
  H        37.2062602473       15.3775382757       13.4499801701
  H        38.6494937056       18.6713133413       11.0870322482
  H        36.4845102905       18.7210526048        9.8521238628
  H        37.1909852691       17.3548627687       14.8056505776
  H        35.1935844631       26.6639783718       11.4051013796
  H        28.4992880039       21.1042525427        7.8070767623
  H        25.8020813872       19.6134667278       12.1752332097
  H        23.6107178183       19.7027515501       13.3806485827
  H        22.2890927916       16.2264296661       11.2205588974
  H        24.4771627773       16.1588120546       10.0112274428
  H        23.7004230462       17.6713572856       14.7974573651
  H        28.9187470278       21.7415268064        9.7248465079
  H        29.1989611365       21.6911992783        6.4637314621
  H        32.1071840531       18.5563677129       11.0318727092
  H        27.3436248976       19.0742809420        8.0548256180
  H        14.8598847450       19.6862989786       12.0931263632
  H        17.0301709104       19.7559337026       13.3235153018
  H        18.3139016566       16.2157654215       11.2460211264
  H        16.1404630438       16.1631169284       10.0133145667
  H        16.9188155928       17.7587442608       14.8000027513
  H        46.0546633622       15.4258509341       12.0532392489
  H        43.9178181086       15.3508312333       13.3300685451
  H        42.4977610109       18.7670329226       11.1353628596
  H        44.6361851644       18.8181536940        9.8488602298
  H        43.9736176660       17.3116436175       14.7682274787
  H        20.3129752378       17.9753215750       11.3995138171
  H        46.0571614650       15.4206700590        3.9829942277
  H        43.9369732010       15.3652103461        2.6763719966
  H        42.5142281228       18.7906938279        4.8549531632
  H        44.6421854440       18.8337022863        6.1607516064
  H        43.9853850448       17.3174721364        1.2157735773
  H        46.1986842540       26.6822710726        4.6233000776
  H        52.7410093703       21.0625213446        8.1945474552
  H        14.8633977958       19.6827600388        3.9094448800
  H        17.0561224512       19.7610674213        2.7116166622
  H        18.3076128796       16.2056038961        4.7823129485
  H        16.1179150003       16.1526384518        5.9920453186
  H        16.9224798033       17.7540561124        1.2480789382
  H        52.3219182657       21.6732901987        6.2947916762
  H        52.0129668297       21.7020771622        9.4953963985
  H        49.0665391834       18.6078858719        5.2042977866
  H        13.2469839725       19.0166774328        7.9753460458
  H        29.9937941701       12.5841150258       12.3313660239
  H        28.9763947097       10.6069210906       13.4691608821
  H        25.3812429354       11.1292239134       11.1660601251
  H        26.4179115014       13.0846502803       10.0159378879
  H        27.2286213269       11.6674394719       14.8080723966
  H        30.9755983045       22.8589413892       11.9283062792
  H        31.9953966651       24.7090368545       13.2442350349
  H        35.7393038835       24.0702333251       11.2265047074
  H        34.7088769567       22.2059914922        9.9181746837
  H        33.6430342408       23.5890314228       14.7581105537
  H        25.8448417541        8.5805907885       11.3903471932
  H        30.8973788721       22.6645880728        3.9125556535
  H        31.8982437335       24.5485127734        2.6216496162
  H        35.5313476016       24.1635399181        4.8937064764
  H        34.5091687069       22.2938914319        6.1947918701
  H        33.5868127785       23.5795730071        1.2053114587
  H        40.6088158969       17.1002483466        4.6327503374
  H        32.5229059772       14.1388305204        8.2250485172
  H        29.8957080452       12.5303986466        3.9122281982
  H        28.8795922309       10.6209332013        2.6654686675
  H        25.2193034982       11.1437653700        4.8635382071
  H        26.2590711644       13.0345139092        6.1241760125
  H        27.1832611544       11.6796390682        1.2517679948
  H        33.3062344481       14.2416294495        6.4620508420
  H        33.3982615996       14.3188613885        9.6353398872
  H        32.0761739768       18.4536728473        5.1357656768
  H        30.1985537055       14.1359879535        8.0971530808
  H        16.1184190445        2.9629757675       12.1294059947
  H        14.9529829243        4.8197606943       13.3222713824
  H        17.3653272224        7.6858487628       11.2099052182
  H        18.5145195660        5.8186450204       10.0101363243
  H        16.7531782534        5.7392643786       14.7714193423
  H        44.8275655973       32.1404121560       11.9774623971
  H        45.9369337547       30.3415743127       13.3068204364
  H        43.6833230661       27.3781988906       11.1516834020
  H        42.6005623599       29.1900547449        9.8090498504
  H        44.2304839271       29.4368908165       14.7688674599
  H        14.8501359675        8.5456333051       11.3632767075
  H        44.8998245701       32.2339840273        3.9317356789
  H        46.0246141269       30.4128951054        2.6522490243
  H        43.7633703638       27.4840485344        4.8454533129
  H        42.6456287769       29.3177832113        6.1244927798
  H        44.2685315876       29.4705930185        1.2181140419
  H        34.9997418380       26.6306942451        4.6466473213
  H        36.6054658387       35.1341836520        8.1804947026
  H        16.1442159630        3.0129676983        3.9043306382
  H        14.9746063281        4.8561690108        2.6884987640
  H        17.3964048740        7.7473105384        4.7552266533
  H        18.5434765160        5.8935713965        5.9829965513
  H        16.7647250569        5.7554062391        1.2191340667
  H        36.2798710344       34.4817482021        6.2734345296
  H        36.3815982832       34.2087739991        9.4992597181
  H        40.5790323733       33.2023737911        5.1539929391
  H        17.4722612577        1.9477713935        7.9743807170
  H        29.1409227273       19.1663029015       12.9306948520
  H        28.7944194925       18.7538991261        3.7906473338
  H        31.7608454545       15.7369585397        3.5287463244
  H        27.7110185570       18.5224061989       14.3386010277
  H        29.9548260070       14.6346508271       14.6109986969
  H        32.4780588788       17.2455428874        1.3970554657
  H        18.8531717130        0.8690957148       12.3350573659
  H        40.5283326457       35.2289618379        3.9520148938
  H        42.3237705398       34.4184671123        3.5908711780
  H        22.0878263428        0.6920118003       12.3519114583
  H        11.5970628451       18.7122851688       12.3822445559
  H        52.2648830100       18.4311700303        3.6783599969
  H        49.2542859376       16.4772732340        3.5851271202
  H        10.1501077211       15.7982318794       12.2923871072
  H        50.8498266275       17.6926803003        3.9540531318
  H        10.0457851002       17.3948141656       12.0519144841
  H        20.2142466432        0.0023072065       12.0421587688
  H        39.1837904303       36.1243985715        3.6862566850
 Ni        30.6877589264       17.6721512956        2.9093888172
 Ni        30.8178453730       16.3765829123        0.0848318502
 Ni        29.6737958375       18.3570784943        0.0867737105
 Ni        29.4706262665       16.9102497385       14.3231159162
  O        10.6497922490       14.3652211933        5.4857803820
  O        12.6130559370       14.6575057642        6.5839104166
  O        49.1471649865       16.8459365090        7.9899659642
  O        50.3499995558       20.9362594895        5.6483159876
  O        48.3483948593       20.5931844624        6.6661165278
  O        11.0506513036       17.0539843319        6.5006942076
  O        50.3208379241       20.8817210570       10.4068434732
  O        48.3466147531       20.5866090283        9.3270762502
  O        49.5431272933       18.2483216202       10.0684252488
  O        12.3587744998       18.6245324548        7.9998319833
  O        48.6929706611       14.1488179938        6.7511441869
  O         8.2095093824       14.2108887035        9.3229007486
  O        10.7351180973       14.5068294865       10.6643381207
  O        12.5716959297       14.5828217099        9.3285780092
  O        22.8442920361        2.0420658397        5.4871094375
  O        21.6069902675        3.5931417106        6.5883931146
  O        42.0580087240       34.1375687906        7.9793373331
  O        37.9812394964       33.1364873053        5.5723248777
  O        39.2170828847       31.5748834742        6.6655599627
  O        20.3087611212        1.0407264398        6.5027142860
  O        38.0242758565       33.1845981676       10.4158337717
  O        39.2188727072       31.5832896866        9.3269834882
  O        40.6522910524       33.7696000630       10.0603049086
  O        18.2567106897        1.3762502013        7.9969301308
  O        44.6221177901       35.1005907069        6.7588269191
  O        24.2053702997        0.0000492261        9.3208070536
  O        22.7546461916        2.0589454052       10.5854335754
  O        21.6279149664        3.6003611921        9.3506530746
  O        27.4576131808       18.6926554695        5.4893080194
  O        26.6903719567       16.9167189836        6.6691326400
  O        30.6349520374       19.3439227193        8.0734176319
  O        33.5928155156       16.2648696969        5.7424245404
  O        34.2707588962       18.1790733980        6.7477869714
  O        29.5399053122       17.0087762226        6.5827324866
  O        33.3865963813       16.3492976602       10.5817568154
  O        34.1762006631       18.1545110085        9.4298621056
  O        31.5173789478       18.2432135255       10.3288547423
  O        30.2912156237       15.1024293999        8.0822855724
  O        28.5453508775       21.0299989857        6.7599967398
  O        28.5095762844       20.9584938331        9.3208657920
  O        27.5001634803       18.6164006064       10.6739915714
  O        26.6878425693       16.9179785867        9.4083321950
  O        13.1480751558       18.6937913581       10.5864148953
  O        13.9191445409       16.9162794249        9.4049869890
  O        50.5949865810       19.3499764052        8.0210558035
  O        47.6768361745       16.3286509231       10.4189176265
  O        46.9475366645       18.1756581048        9.3265803772
  O        11.0685441733       17.0158719635        9.4895968720
  O        47.6735970036       16.3366404644        5.6510963563
  O        46.9234668946       18.2355813791        6.6619745920
  O        49.5677706065       18.3177074576        5.9824329967
  O        10.3184056924       15.1004711067        7.9972213690
  O        52.6706749848       21.0279691538        9.2418134600
  O        12.1467390740       20.8912519046        6.6733522960
  O        13.1046959954       18.6143629624        5.3261556180
  O        13.9557892374       16.9867413220        6.6649474776
  O        29.9953430539       14.5844608432       10.7465689841
  O        28.0912459456       14.6545149020        9.4999362510
  O        32.0683413819       16.8547183641        8.0779973989
  O        30.9697333477       20.9508214463       10.4089650485
  O        32.9454139906       20.5870746035        9.3353327447
  O        29.5370291568       17.0821714828        9.5620270726
  O        30.8520733899       20.8827507502        5.6603456559
  O        32.8691948673       20.5850701845        6.6660756711
  O        31.6690558272       18.2479779252        5.9976069880
  O        28.2286064290       18.6750316301        8.0653677897
  O        32.4858101758       14.2103817892        9.3171476458
  O        32.4056737562       14.2113858721        6.8277905070
  O        29.9113177171       14.4285865867        5.4909880279
  O        28.0309202385       14.5841436521        6.7491187994
  O        17.8893383173        1.9666347344       10.6627035203
  O        18.9565720510        3.5272030144        9.4079956917
  O        39.1685787054       34.1386562177        7.9971541529
  O        43.2801454631       33.0590456026       10.3317043499
  O        42.0343914819       31.5065192304        9.2416028726
  O        20.3179675883        1.0370367003        9.4800001622
  O        43.2760273094       33.1825867102        5.5749182457
  O        42.0052053513       31.5841496302        6.5830135148
  O        40.5788906048       33.7750797541        5.9361029817
  O        22.3676393156        1.3855525831        7.9985098973
  O        36.6729077863       35.0997116178        9.2332705903
  O        16.4458976319        0.0643009429        6.6683170394
  O        17.9365585169        2.0433586093        5.3265960553
  O        18.9195964984        3.5930721609        6.6662049675
  O        29.6991901241       18.7535247314        4.1542195562
  O        29.5694947999       19.5659749214       12.0709292282
  O        31.3451979677       16.3415719215        4.1722869874
  O        31.7707619939       16.6276532853        1.6648873181
  O        30.5333347705       15.3974817201       14.4158077379
  O        28.6775021720       18.6080027384       14.2483334162
  O        39.4569253534       35.2438500195        4.0020439266
  O        19.1411174003        0.0045455066       11.9905311242
  O        41.9694375081       35.1725608133        4.0872119976
  O        21.6913606307       -0.0692619576       11.8960186231
  O        51.3646981774       18.6143637492        4.0053985454
  O        10.7511095049       18.7471523117       11.9050217468
  O        50.0790955289       16.4127515298        4.0917993784
  O         9.5242177751       16.4831897125       11.9911456679
 Zr         9.2955500599       16.0529882995        6.1820251912
 Zr        49.8347993683       16.0074710024        9.7470403528
 Zr        22.0729917377        0.0300833626        6.1892812628
 Zr        42.4610967965       35.1543136050        9.8016196657
 Zr        29.5659091295       19.0434503910        6.2556160290
 Zr        29.5150003179       19.1921706279        9.8401799804
 Zr        11.0371690044       19.0522174495        9.8278603016
 Zr        11.0425221471       19.1550023508        6.2517838104
 Zr        31.3167872635       16.0956983857        9.7717197792
 Zr        31.3574565411       15.9799207706        6.2344593442
 Zr        18.6012749358       -0.0014618489        9.7631349525
 Zr        18.5070919892       -0.0070761248        6.2137539678
 Zr        12.3008132662       16.3234129202        7.9906874059
 Zr        48.6138122683       18.8321685356        8.0106753263
 Zr        20.3174907098        2.4753854112        7.9924534442
 Zr        40.6433572422       32.6869686269        7.9779617768
 Zr        28.3053455732       16.3193144090        8.0638551279
 Zr        32.6033027540       18.8482450581        8.0084365011
  H        30.1159681287       18.5468897353        1.6374949321
  H        30.2464334080       20.2124089269       12.3295615761
