     574
 i =      303, E =     -4778.8812525399
  C        11.8588229380       14.0534831406        5.7415284327
  C        12.4563195930       12.8905857838        5.0232554381
  C        11.7045094770       12.1713798144        4.0818829113
  C        12.2809105734       11.1091859132        3.3895525615
  C        13.6216208555       10.7396919488        3.6170032337
  C        14.3549857389       11.4436530704        4.5900344677
  C        13.7820742449       12.5086322766        5.2815292721
  C        14.2610931729        9.6489651106        2.8436304954
  C        14.2562531902        9.6567906441        1.4219337546
  C        13.7430257191       10.7588916005        0.6680404436
  C        49.1270018447       21.2331292690        5.8796562533
  C        48.5502731917       22.4011946740        5.1525970622
  C        49.3002204971       23.0683851372        4.1714695173
  C        48.7332911153       24.1075493668        3.4382769740
  C        47.4028630143       24.5093935252        3.6671288288
  C        46.6720212836       23.8606910212        4.6808252406
  C        47.2344694811       22.8157639549        5.4101468973
  C        46.7725005093       25.5870263790        2.8698623809
  C        46.7612606214       25.5573187867        1.4481038139
  C        47.2610900944       24.4421779696        0.7046099167
  C        14.8601691026        8.5704389910        0.7086725293
  C        14.8920092467        8.5971088588        3.5202834734
  C        49.1132924828       21.2034000092       10.1453658107
  C        48.5278628626       22.3648048679       10.8725891068
  C        49.2669894969       23.0253829481       11.8656485810
  C        48.6906364462       24.0599269673       12.5971338387
  C        47.3603025262       24.4568436037       12.3587315608
  C        46.6400006017       23.8120783769       11.3350392947
  C        47.2135845496       22.7761880093       10.6032481499
  C        46.7217546772       25.5317662303       13.1497581893
  C        46.7333360234       25.5280644636       14.5714663074
  C        47.2487589864       24.4288439155       15.3278498809
  C        40.6324532053       17.1424834398       15.3193783847
  C        40.6522270144       17.1654793225       12.5101840661
  C        11.8831290479       14.0865389357       10.2855377090
  C        12.4725066615       12.9108625947       10.9898330543
  C        11.7149030282       12.1773886014       11.9156713417
  C        12.2815330009       11.0949379240       12.5840476111
  C        13.6204915475       10.7215121015       12.3524968672
  C        14.3586163274       11.4374221450       11.3920674635
  C        13.7931417388       12.5185880567       10.7193940636
  C        14.2540358326        9.6246862627       13.1228687589
  C        14.2525060232        9.6444992602       14.5447116049
  C        13.7425431152       10.7534054924       15.2917871665
  C        22.5146447920        3.2448160279        5.7536014461
  C        23.2354132896        4.3476830626        5.0562446458
  C        24.2331471179        4.0626942751        4.1119942475
  C        24.8671673307        5.0985510173        3.4307560676
  C        24.5197987406        6.4425510518        3.6729000747
  C        23.5505401179        6.7190046940        4.6545850816
  C        22.9117573741        5.6848730098        5.3344265835
  C        25.1312526309        7.5457517008        2.8960726023
  C        25.1007639944        7.5386977956        1.4744547981
  C        24.3936478188        6.5416909456        0.7299599870
  C        38.2986730333       31.9278548992        5.8517175062
  C        37.5582645253       30.8385022083        5.1493807579
  C        36.5931246343       31.1449588989        4.1776196805
  C        35.9640207553       30.1267885549        3.4661188340
  C        36.2846267155       28.7756571633        3.7032410173
  C        37.2192920340       28.4765387118        4.7125440714
  C        37.8523792995       29.4937798928        5.4233484625
  C        35.6753195955       27.6872098610        2.9037459534
  C        35.7163188025       27.7021259406        1.4819360352
  C        36.4303684485       28.7023198893        0.7491483366
  C        25.7239727726        8.6076322188        0.7529499518
  C        25.7340266709        8.6186251694        3.5650071137
  C        38.3308142623       31.9612137921       10.1599541950
  C        37.6144266803       30.8877534842       10.9094241691
  C        36.6817355975       31.1971365016       11.9113829039
  C        36.0723369665       30.1799227468       12.6440801579
  C        36.3807091517       28.8267062276       12.3989231373
  C        37.2943639947       28.5271100702       11.3696888913
  C        37.9056384763       29.5409246895       10.6382485636
  C        35.7660243710       27.7281633271       13.1806548655
  C        35.7624776247       27.7232715142       14.6032207651
  C        36.4510170280       28.7133022057       15.3724549497
  C        46.1352992568       26.6206893375       15.2816058575
  C        46.0879251550       26.5802074293       12.4737056716
  C        22.4613956921        3.2559980225       10.2582023526
  C        23.1562767700        4.3634247616       10.9816996014
  C        24.1581629394        4.0752861894       11.9222748932
  C        24.7878471373        5.1038217441       12.6189306949
  C        24.4361436097        6.4506246522       12.3980540832
  C        23.4571385274        6.7319134640       11.4261208173
  C        22.8227894707        5.7036460242       10.7297878169
  C        25.0701850325        7.5471620885       13.1718095044
  C        25.0694585148        7.5389592079       14.5947634643
  C        24.3770344815        6.5427253085       15.3531134405
  C        26.6263328070       17.8613222863        5.7787971026
  C        25.3201823591       17.9082223761        5.0536276320
  C        25.0641993043       18.8989873849        4.0923506791
  C        23.8504310660       18.9195553143        3.4076831446
  C        22.8556769260       17.9531665302        3.6617598407
  C        23.1086035990       16.9850678162        4.6521453845
  C        24.3241070596       16.9584755845        5.3341685043
  C        21.5816193481       17.9388196159        2.8985527007
  C        21.5807243244       17.9147324327        1.4758188379
  C        22.7853038486       17.7855363746        0.7145105755
  C        34.4368328507       17.1962892192        5.9166914440
  C        35.7272680688       17.1505696092        5.1692412895
  C        35.9277349116       16.1932825790        4.1625447151
  C        37.1086784423       16.1841527379        3.4257328277
  C        38.1214516981       17.1303914112        3.6766835583
  C        37.9230820228       18.0682394733        4.7078648716
  C        36.7392098534       18.0834275420        5.4413494706
  C        39.3766148948       17.1412853216        2.8924871165
  C        39.3736029037       17.1604291418        1.4709951762
  C        38.1676467808       17.2857986467        0.7118619149
  C        20.3333070583       17.9347748079        0.7684036751
  C        20.3569644693       17.9435375921        3.5817504145
  C        34.4686053135       17.2441410802       10.1850667594
  C        35.7709328347       17.1692088699       10.9086597599
  C        35.9855175189       16.1883432995       11.8882174364
  C        37.1730633595       16.1709017318       12.6142759659
  C        38.1739529283       17.1333942402       12.3792591239
  C        37.9660018604       18.0886940596       11.3671868340
  C        36.7763333173       18.1114559756       10.6446770908
  C        39.4209921092       17.1542329699       13.1740594626
  C        39.3963888066       17.1672520215       14.5948222032
  C        38.1780873062       17.2869250103       15.3351583737
  C        35.1226869174       26.6465452339       15.3030448368
  C        35.1799923825       26.6571243690       12.4934571807
  C        26.5693820184       17.8273365613       10.3232190871
  C        25.2539692373       17.8729106239       11.0277018166
  C        24.9882183947       18.8790384147       11.9687682486
  C        23.7714818659       18.9028855104       12.6443481978
  C        22.7901780101       17.9212238139       12.4012044378
  C        23.0492964482       16.9405931540       11.4265878419
  C        24.2675258015       16.9139739844       10.7502898289
  C        21.5274182842       17.9028671901       13.1756836755
  C        21.5527610786       17.8955056823       14.5972987063
  C        22.7716657131       17.7769686947       15.3379735163
  C        14.0467344216       17.8287674231       10.2892785997
  C        15.3504200742       17.8856057887       11.0152991136
  C        15.6065396415       18.8887023114       11.9632708801
  C        16.8151402391       18.9095929399       12.6567408259
  C        17.8020669933       17.9301477643       12.4248093660
  C        17.5505447537       16.9511984365       11.4448373693
  C        16.3414994559       16.9257459761       10.7527584993
  C        19.0713322540       17.9135443114       13.1934125551
  C        19.0712919392       17.9136065797       14.6159449515
  C        17.8648700420       17.8177304016       15.3784127538
  C        46.8065979553       17.2196933130       10.1592181873
  C        45.5180307354       17.1616704208       10.9067678392
  C        45.3125176524       16.1880198759       11.8962051126
  C        44.1318740169       16.1748669894       12.6338853926
  C        43.1280568650       17.1354563890       12.4029985570
  C        43.3309824472       18.0888691846       11.3872456181
  C        44.5123142155       18.1060521761       10.6508739987
  C        41.8751870711       17.1510032783       13.1906450198
  C        41.8798822475       17.1530985075       14.6123097504
  C        43.0881689516       17.2467519610       15.3722196287
  C        20.3187068416       17.9240337929       15.3232558396
  C        20.2949287369       17.8914737004       12.5101468813
  C        46.7855608670       17.2312943968        5.8896785545
  C        45.4814660312       17.1269576760        5.1753897911
  C        45.2617487210       16.1320455560        4.2108932858
  C        44.0733779547       16.1092613150        3.4850279178
  C        43.0757306995       17.0782158308        3.7071606118
  C        43.2852114044       18.0418660396        4.7111323136
  C        44.4747846371       18.0712646688        5.4316965599
  C        41.8304734771       17.1067940834        2.9091459309
  C        41.8571911900       17.1289654540        1.4883906519
  C        43.0774856888       17.2324686735        0.7489416641
  C        46.1531402702       26.6371513617        0.7263694732
  C        46.1627549096       26.6562607429        3.5359967450
  C        14.0467776795       17.8325618334        5.7089459811
  C        15.3686916159       17.9088523102        5.0199817665
  C        15.6423101139       18.9248893955        4.0919307252
  C        16.8719493295       18.9637693155        3.4381545459
  C        17.8563781642       17.9856795795        3.6857617561
  C        17.5897184940       16.9989985332        4.6525631751
  C        16.3621664753       16.9596540942        5.3100763594
  C        19.1236790377       17.9611481789        2.9160009303
  C        19.0986734904       17.9365532845        1.4943603417
  C        17.8782213638       17.8278898328        0.7545972936
  C        28.8121454561       14.0909875092       10.3910137387
  C        28.1999155257       12.9158557762       11.0766062491
  C        28.9286192801       12.1654336308       12.0112443437
  C        28.3305554963       11.0901421746       12.6634947578
  C        26.9899928555       10.7402097137       12.4040508539
  C        26.2828987754       11.4700998254       11.4318332517
  C        26.8785110995       12.5462929997       10.7787142558
  C        26.3236318809        9.6591754134       13.1664578017
  C        26.3190336822        9.6828036438       14.5876532363
  C        26.8269316164       10.7944267920       15.3321760100
  C        32.1793714501       21.2369403223       10.1456761877
  C        32.7764777581       22.4011074749       10.8685570878
  C        32.0235485481       23.0878297947       11.8335264208
  C        32.5922052772       24.1294568605       12.5606918411
  C        33.9304601683       24.5125709622       12.3455933093
  C        34.6667376397       23.8436359073       11.3495967182
  C        34.0997912299       22.7972177082       10.6235194930
  C        34.5562858605       25.5892008733       13.1483863251
  C        34.5347598424       25.5638107945       14.5701927665
  C        34.0146235354       24.4518924874       15.3052254431
  C        25.7118465781        8.6044154265       15.3079412665
  C        25.6827887513        8.6103085701       12.4943839453
  C        32.0783347399       21.1972846485        5.8729030059
  C        32.6481669986       22.3579221645        5.1253207598
  C        31.9122096076       23.0141589810        4.1264594555
  C        32.4854235439       24.0551531212        3.3975305357
  C        33.8085704882       24.4709929612        3.6480601146
  C        34.5257452622       23.8280553569        4.6754245565
  C        33.9579275140       22.7835764128        5.3995220172
  C        34.4494589586       25.5578996196        2.8703295979
  C        34.4783612123       25.5485247652        1.4483524592
  C        33.9864479642       24.4455105394        0.6816848503
  C        40.6206314085       17.1344793053        0.7636648821
  C        40.5992780706       17.1308698840        3.5732952941
  C        28.7556783529       14.0710030636        5.8151828945
  C        28.1538224850       12.9203474778        5.0774501946
  C        28.8902898956       12.2318537938        4.1012667064
  C        28.3149703603       11.1711512732        3.4051912321
  C        26.9867056361       10.7730091482        3.6584768304
  C        26.2677636269       11.4496348751        4.6617858339
  C        26.8414814441       12.5099838478        5.3603142045
  C        26.3464917121        9.6806235460        2.8863993083
  C        26.3320911142        9.6941082600        1.4643144895
  C        26.8306942344       10.8013610402        0.7082684116
  C        18.1355341048        3.1811136320       10.3171411166
  C        17.4063202557        4.2783089519       11.0157518384
  C        16.3903763551        3.9999963085       11.9430599163
  C        15.7427053660        5.0399987802       12.6065456666
  C        16.0948777482        6.3837053946       12.3670966864
  C        17.0845561098        6.6531879402       11.4036217708
  C        17.7336080485        5.6158240036       10.7385593239
  C        15.4704887341        7.4913735861       13.1301488284
  C        15.4855193617        7.4905154189       14.5518690190
  C        16.1870440569        6.4968819152       15.3050432963
  C        42.9458544369       31.8596194237       10.0728467164
  C        43.6462149748       30.7718855278       10.8168192871
  C        44.5913931278       31.0932346086       11.8032095540
  C        45.1971159034       30.0877012242       12.5508942399
  C        44.8710381030       28.7345947799       12.3357713169
  C        43.9456662702       28.4202317993       11.3221359422
  C        43.3368508065       29.4253634518       10.5740755327
  C        45.4885752334       27.6552716790       13.1389714874
  C        45.4926264011       27.6808376262       14.5606749656
  C        44.8055467079       28.6888761676       15.3073254257
  C        14.8564737924        8.5629554877       15.2642423620
  C        14.8753763939        8.5632414359       12.4515567699
  C        42.9465313396       31.9617710238        5.8090368030
  C        43.6918853967       30.8856011733        5.0956496110
  C        44.6561463900       31.1915334987        4.1230337165
  C        45.2777117357       30.1719535340        3.4053198504
  C        44.9543172205       28.8216013383        3.6432676028
  C        44.0212820904       28.5239294907        4.6544697963
  C        43.3929782026       29.5406811627        5.3666428297
  C        45.5632381996       27.7241660851        2.8579791818
  C        45.5332753293       27.7173579292        1.4366819329
  C        44.8268954807       28.7075429232        0.6837213985
  C        35.0965036497       26.6375508736        0.7484769862
  C        35.0595594394       26.6144172898        3.5590579949
  C        18.1487093820        3.2470965974        5.7065738635
  C        17.4301563291        4.3438662365        4.9973355902
  C        16.4147270441        4.0526073377        4.0739761108
  C        15.7664338720        5.0832419979        3.3986121189
  C        16.1213102004        6.4284660975        3.6211347168
  C        17.1129861965        6.7118346976        4.5780872468
  C        17.7606662993        5.6829229616        5.2578495369
  C        15.4907228637        7.5241177146        2.8486890609
  C        15.4964563194        7.5073801897        1.4275568587
  C        16.1932223456        6.5056832073        0.6808582109
  H        10.6722671442       12.4652566359        3.9051102365
  H        11.6945554856       10.5504557130        2.6632622036
  H        15.3921953450       11.1694692200        4.7713868784
  H        14.3517627327       13.0721954931        6.0165341251
  H        13.3760769386       11.6310317557        1.2013661348
  H        50.3228611990       22.7481965489        3.9865884637
  H        49.3197545874       24.6227260211        2.6806199595
  H        45.6426532079       24.1617322417        4.8642449382
  H        46.6635978919       22.2906470748        6.1724281937
  H        47.6297740297       23.5758695005        1.2463074210
  H        14.8726288703        8.5885223205        4.6085942512
  H        50.2870011478       22.7024532961       12.0606274377
  H        49.2690083650       24.5752979133       13.3607126679
  H        45.6106861147       24.1095170645       11.1457945975
  H        46.6529066987       22.2541592094        9.8314915676
  H        47.6076164512       23.5517601694       14.7969455286
  H        40.6592455041       17.1300620565       11.4224829771
  H        48.6871476144       14.0950056383        7.8000603975
  H        10.6813178089       12.4662026998       12.0928261759
  H        11.6896856114       10.5242910162       13.2964931694
  H        15.3942197843       11.1599302489       11.2064783517
  H        14.3656809697       13.0882555413        9.9912482070
  H        13.3758222078       11.6220670741       14.7531562749
  H        47.9303133374       14.2183477460        9.7109787465
  H        47.7800934153       14.3738115508        6.4953199158
  H        49.0846017470       18.5526725408       10.8676061997
  H        10.4163653204       14.1342568174        7.9987021980
  H        24.4894687014        3.0228130099        3.9220469783
  H        25.6404878855        4.8763771065        2.6985963444
  H        23.2746652602        7.7534565431        4.8485932318
  H        22.1413883854        5.8902140467        6.0737510294
  H        23.8325715410        5.7857657193        1.2715761835
  H        36.3608425903       32.1890328099        3.9813381729
  H        35.2166594861       30.3697214731        2.7139085361
  H        37.4753844946       27.4365124126        4.9040962941
  H        38.5995651059       29.2691773546        6.1809314842
  H        36.9926849085       29.4513358587        1.2990642110
  H        25.7712642134        8.6016980057        4.6527669342
  H        36.4536601712       32.2414089060       12.1127644513
  H        35.3424588191       30.4269024915       13.4119078489
  H        37.5463904834       27.4869898562       11.1737002734
  H        38.6318597233       29.3134252556        9.8616493060
  H        37.0301166496       29.4705107122       14.8515866154
  H        46.1095820134       26.5877237920       11.3856737247
  H        44.6684281585       35.1162892543        7.8139789546
  H        24.4344861344        3.0365702023       12.0886297905
  H        25.5686758948        4.8730486539       13.3404504491
  H        23.1738613775        7.7670045675       11.2462602556
  H        22.0514088900        5.9186637236        9.9938843077
  H        23.8026404407        5.7881478932       14.8235975869
  H        44.9542209116       34.3907476765        9.6953836171
  H        44.9021716775       34.2069398687        6.4907114137
  H        40.6667872059       33.2097363327       10.8534272735
  H        23.1505048598        1.9581650590        8.0055095125
  H        25.8282006520       19.6483136185        3.8979408234
  H        23.6575347069       19.6938681498        2.6682310749
  H        22.3533162214       16.2291186077        4.8573205925
  H        24.5293725941       16.1966139530        6.0825521846
  H        23.7268459687       17.6605141571        1.2415521507
  H        35.1423939445       15.4671192284        3.9670815982
  H        37.2636981912       15.4332227789        2.6540907832
  H        38.6973339346       18.8066638246        4.9058403377
  H        36.5696619568       18.8210721069        6.2223540293
  H        37.2284812685       17.4093022508        1.2432553641
  H        20.3646898537       17.9849594738        4.6695809796
  H        35.2032011299       15.4569208967       12.0767436684
  H        37.3392333566       15.4075471441       13.3712769401
  H        38.7333589933       18.8373962434       11.1815374330
  H        36.5929945994       18.8663193014        9.8837416885
  H        37.2470815431       17.4102090598       14.7893427228
  H        35.1627718197       26.6817387028       11.4055094415
  H        28.5051861803       21.0718236913        7.9572411257
  H        25.7481158312       19.6348645472       12.1531493891
  H        23.5659303976       19.6863738519       13.3705006503
  H        22.2998770905       16.1758365796       11.2330266920
  H        24.4839809468       16.1443027782       10.0132969991
  H        23.7025525593       17.6461020131       14.7941513143
  H        29.0146138205       21.7161464405        9.7534908853
  H        29.1667676410       21.7366762544        6.6236159391
  H        32.0824002899       18.5449783508       10.9860502863
  H        27.3953925312       19.0597087113        8.0694590703
  H        14.8480703087       19.6477912457       12.1411037939
  H        17.0100242631       19.6939776082       13.3849383919
  H        18.3019704918       16.1870804668       11.2565645769
  H        16.1362156996       16.1566463023       10.0119348679
  H        16.9216958388       17.7025986776       14.8522605773
  H        46.0948885514       15.4553926832       12.0799104631
  H        43.9719221563       15.4121998855       13.3928318507
  H        42.5633995853       18.8382882833       11.2056809258
  H        44.6866194366       18.8562019762        9.8831218665
  H        44.0303575004       17.3609369723       14.8437863812
  H        20.2880855515       17.9194859188       11.4219751922
  H        46.0380357401       15.3917609169        4.0311255628
  H        43.9056470774       15.3378859432        2.7365300779
  H        42.5194849920       18.7939897405        4.8892325677
  H        44.6588250203       18.8347348323        6.1835295492
  H        44.0115121813       17.3344480774        1.2938868036
  H        46.1999199143       26.6829566121        4.6234293385
  H        52.7413184161       21.0626669716        8.1947140263
  H        14.8814103471       19.6780632095        3.8994526214
  H        17.0824958337       19.7547321008        2.7215136236
  H        18.3406900626       16.2373317848        4.8521570825
  H        16.1417891926       16.1845497085        6.0400525150
  H        16.9450608861       17.7206980664        1.2993503148
  H        52.3227074163       21.6733355093        6.2941552484
  H        52.0133790014       21.7021668194        9.4956150885
  H        49.0680773216       18.6076640248        5.2038529012
  H        13.2479335941       19.0159327712        7.9774873357
  H        29.9618001980       12.4395210546       12.2123524190
  H        28.8968118956       10.5082203445       13.3875120867
  H        25.2469771893       11.2099158786       11.2242693164
  H        26.3298330819       13.1312681201       10.0446730518
  H        27.1866270630       11.6643785565       14.7910367438
  H        30.9955348860       22.7797242542       12.0082783815
  H        32.0018361524       24.6614781587       13.3035588396
  H        35.7025870193       24.1288577158       11.1772692866
  H        34.6740415594       22.2565187579        9.8746247914
  H        33.6603057464       23.5847324981       14.7553227893
  H        25.7069461914        8.5932938914       11.4061938644
  H        30.8921215158       22.6929073461        3.9280842681
  H        31.9060121069       24.5649514864        2.6307422068
  H        35.5495855901       24.1365407751        4.8766720198
  H        34.5184706467       22.2675759166        6.1753999720
  H        33.6103114746       23.5728393556        1.2076523724
  H        40.5912785699       17.0869320294        4.6607145999
  H        32.5050096959       14.1498344742        8.2553859842
  H        29.9144524825       12.5414216709        3.9060025225
  H        28.8945304059       10.6335915431        2.6578224717
  H        25.2398283345       11.1560167498        4.8644058375
  H        26.2820999326       13.0473801721        6.1223412259
  H        27.1911947180       11.6774179871        1.2395523981
  H        33.3105087831       14.2320840983        6.4691846112
  H        33.4087119545       14.4132277547        9.5951306454
  H        32.0847821210       18.4847563610        5.1438721040
  H        30.2258713964       14.1939806420        8.0681035786
  H        16.1181044479        2.9635232674       12.1292964108
  H        14.9530851813        4.8206961069       13.3220374491
  H        17.3673440764        7.6860198119       11.2107859373
  H        18.5159304063        5.8185203536       10.0110294304
  H        16.7537756530        5.7396650882       14.7715555046
  H        44.8274405153       32.1403393607       11.9775984918
  H        45.9367670830       30.3415327636       13.3070240274
  H        43.6834287619       27.3781072763       11.1516528145
  H        42.6006867005       29.1900198524        9.8089773847
  H        44.2303036376       29.4367399621       14.7690349430
  H        14.8519386575        8.5466763598       11.3633267487
  H        44.8994437944       32.2342325483        3.9313500233
  H        46.0243886560       30.4132489827        2.6518743623
  H        43.7647928228       27.4841557476        4.8464334351
  H        42.6468799892       29.3178941074        6.1254872594
  H        44.2685398453       29.4705409418        1.2183049150
  H        35.0107262459       26.6262680026        4.6463262697
  H        36.6053817386       35.1341014630        8.1806659201
  H        16.1434714476        3.0130560204        3.9044106676
  H        14.9739672500        4.8564594471        2.6886701720
  H        17.3968380577        7.7472603729        4.7546750396
  H        18.5438669461        5.8934411238        5.9822424120
  H        16.7647991614        5.7555475573        1.2192873216
  H        36.2789708693       34.4823072899        6.2730293573
  H        36.3814941766       34.2088362834        9.4993375462
  H        40.5796894458       33.2024226397        5.1535922329
  H        17.4712512998        1.9476308733        7.9740960308
  H        29.0556730817       19.3661230585       12.4872191050
  H        29.8030875506       19.5949373387        3.5281296054
  H        31.8271674670       15.7652493467        3.4877185575
  H        31.3182586830       15.6752771550       12.5320312935
  H        28.3901260347       17.8244635350       14.8734268032
  H        29.7040256091       15.5584702907       14.6668941677
  H        31.7896122657       19.8404458497        1.5380173719
  H        33.0623479406       17.6017907456        1.3527378091
  H        28.1045226577       17.1145469277        2.0931615248
  H        32.5952615083       18.8443424173       15.3257745794
  H        18.8534064277        0.8689346349       12.3351597853
  H        40.5282005980       35.2288440668        3.9519524104
  H        42.3247392948       34.4195641478        3.5899163494
  H        22.0873456319        0.6920958934       12.3515016801
  H        11.5968735408       18.7128274696       12.3825439839
  H        52.2649847575       18.4313250456        3.6771302249
  H        49.2551555150       16.4767876949        3.5845227846
  H        10.1501337165       15.7982495943       12.2929072642
  H        50.8502510644       17.6924797423        3.9541869489
  H        10.0461409305       17.3945673221       12.0519314244
  H        20.2148512621        0.0021872814       12.0418965178
  H        39.1838966175       36.1245286146        3.6865306016
 Ni        31.1528100040       17.8866471374        2.7572658776
 Ni        31.4093902445       16.6232999447       -0.0775283186
 Ni        30.1414449143       18.7681791328        0.1616395238
 Ni        30.1452962261       17.4951617757       13.2385777143
  O        10.6499268800       14.3650761283        5.4858757465
  O        12.6131643234       14.6575034476        6.5839037510
  O        49.1480571410       16.8458241243        7.9896958704
  O        50.3503239371       20.9357686296        5.6479717357
  O        48.3485838021       20.5933527253        6.6658828071
  O        11.0519105529       17.0537130420        6.5007464522
  O        50.3210092965       20.8816968265       10.4068900432
  O        48.3467441829       20.5867959451        9.3271403901
  O        49.5438537171       18.2483918698       10.0681860509
  O        12.3592393554       18.6246222035        7.9996550002
  O        48.6932592975       14.1485841203        6.7513089775
  O         8.2099392115       14.2103882427        9.3225181985
  O        10.7354031134       14.5067512109       10.6642916480
  O        12.5718299590       14.5828289318        9.3284751946
  O        22.8446937534        2.0427694596        5.4872745801
  O        21.6065900617        3.5928144764        6.5886778823
  O        42.0581934234       34.1374607763        7.9788970487
  O        37.9811693641       33.1361140012        5.5722206516
  O        39.2173410068       31.5749330977        6.6658610125
  O        20.3084602493        1.0396716530        6.5022141434
  O        38.0243157440       33.1848876907       10.4157476461
  O        39.2185506038       31.5830391581        9.3272600019
  O        40.6522255654       33.7693371542       10.0600750329
  O        18.2557348517        1.3761705528        7.9967352980
  O        44.6222283800       35.1005490714        6.7588017466
  O        24.2053991529        0.0000085419        9.3207382451
  O        22.7529499443        2.0574248475       10.5837412097
  O        21.6247434899        3.5962667622        9.3432155631
  O        27.5051001825       18.7516887425        5.4920736025
  O        26.7658494200       16.9357910465        6.6514656871
  O        30.6434799563       19.3508832954        8.0467792316
  O        33.5849872987       16.2749013418        5.6650312343
  O        34.2742108043       18.1671735419        6.7350387210
  O        29.5761900165       17.0558846206        6.5725646685
  O        33.6074033328       16.3272503755       10.4143475933
  O        34.3037870683       18.2436603835        9.4063712486
  O        31.6526797541       18.3162223649       10.1446860504
  O        30.3240233447       15.1602103710        8.0812583244
  O        28.5549139395       21.0288706982        6.8931586250
  O        28.5140800238       20.9553990846        9.4124372866
  O        27.4558375855       18.6792988253       10.6569878508
  O        26.6940256213       16.9280424775        9.4124330848
  O        13.1485436352       18.6929578618       10.5873874393
  O        13.9194258115       16.9163199752        9.4051514056
  O        50.5965325721       19.3502746853        8.0203365319
  O        47.6836505478       16.3269633236       10.4173111713
  O        46.9522312613       18.1759866965        9.3242310588
  O        11.0700287810       17.0153776814        9.4895523338
  O        47.6757017698       16.3356913637        5.6529043742
  O        46.9274895282       18.2359152658        6.6648100314
  O        49.5688870191       18.3176795334        5.9822881477
  O        10.3187809624       15.1000871151        7.9971081100
  O        52.6707913737       21.0278883579        9.2418158057
  O        12.1468619536       20.8912008837        6.6732556976
  O        13.1084707989       18.6136273921        5.3255721621
  O        13.9576088601       16.9872514587        6.6651398501
  O        29.9955661469       14.4431258014       10.7285413345
  O        28.0898634327       14.6534823735        9.4947560971
  O        32.1343220590       16.8508712010        8.0719095128
  O        30.9642123361       20.9506641671       10.4073549819
  O        32.9448311124       20.6014912446        9.3352973759
  O        29.5647594595       17.0730799687        9.5720098325
  O        30.8492274044       20.8847551830        5.6552671397
  O        32.8681682901       20.5864949679        6.6640700711
  O        31.6855997374       18.2469127007        5.9991705677
  O        28.2849194443       18.6704099965        8.0716132772
  O        32.4917902077       14.2138806941        9.3295280571
  O        32.4039804396       14.2187538154        6.8197407271
  O        29.9289932558       14.4481939069        5.4879288853
  O        28.0438401293       14.5878843752        6.7486952066
  O        17.8892754345        1.9666170251       10.6627542975
  O        18.9562906564        3.5270959713        9.4078933329
  O        39.1684782262       34.1386248521        7.9971156968
  O        43.2801860531       33.0589421388       10.3317044122
  O        42.0343837026       31.5064518335        9.2416248163
  O        20.3177262356        1.0369494771        9.4798668470
  O        43.2760683255       33.1826427769        5.5748775898
  O        42.0052223729       31.5841109001        6.5829496320
  O        40.5788744937       33.7749699054        5.9357988870
  O        22.3674528079        1.3847976237        7.9978947314
  O        36.6728373482       35.0997153837        9.2333183406
  O        16.4457352019        0.0641918232        6.6682287483
  O        17.9365685460        2.0433523710        5.3264216838
  O        18.9191865701        3.5931335938        6.6659195497
  O        29.9479958703       18.7544733385        4.0005412278
  O        29.7780791958       18.9119566315       12.0139688870
  O        31.3053084672       16.4159850218        3.9911344629
  O        31.2560304628       16.4941132902       12.0030917364
  O        32.3269635136       16.9955892541        1.5569698296
  O        28.2634926334       16.8597726576        1.1650951735
  O        30.5065324686       16.0406583807       14.4044655650
  O        31.7742012770       18.3875747596       15.0735267646
  O        30.9272420699       19.4274347427        1.7226561242
  O        29.1281534141       18.3968653936       14.5885516249
  O        39.4568441765       35.2437795214        4.0019866711
  O        19.1412945011        0.0044129676       11.9904880267
  O        41.9695045683       35.1726938588        4.0870444222
  O        21.6910772237       -0.0694341896       11.8958531033
  O        51.3651485959       18.6143275004        4.0053744925
  O        10.7510773249       18.7471794156       11.9049637857
  O        50.0795729826       16.4127817548        4.0918062495
  O         9.5243271116       16.4831076767       11.9912204963
 Zr         9.2977086220       16.0526218206        6.1825574736
 Zr        49.8371809529       16.0065322433        9.7462957389
 Zr        22.0736332248        0.0307731938        6.1886332986
 Zr        42.4611860946       35.1542575953        9.8010379037
 Zr        29.6070241199       19.0667352655        6.2600212309
 Zr        29.5712405173       19.1674935667        9.8588117039
 Zr        11.0387877495       19.0516796438        9.8278114190
 Zr        11.0448303932       19.1545632152        6.2507754346
 Zr        31.3440292677       16.1071461873        9.8688897110
 Zr        31.3890996045       16.0195487372        6.2599215392
 Zr        18.6015933200       -0.0006045865        9.7632722180
 Zr        18.5070188977       -0.0070479537        6.2137063058
 Zr        12.3032675659       16.3235573607        7.9902297790
 Zr        48.6176562446       18.8331714408        8.0101541447
 Zr        20.3161547823        2.4748391744        7.9903061821
 Zr        40.6438767537       32.6877956934        7.9780120881
 Zr        28.3393573674       16.3340393328        8.0842901115
 Zr        32.6264090584       18.8295809490        8.0540964316
  H        29.1383854778       16.4159500414        1.1989934719
  H        30.9528640432       15.4084210172        0.5829005370
