     574
 i =       98, E =     -4778.8755223554
  C        11.8587803410       14.0534836271        5.7415461464
  C        12.4562795789       12.8906403598        5.0232154499
  C        11.7044353204       12.1713793618        4.0819114102
  C        12.2808217597       11.1091676222        3.3895977145
  C        13.6215475098       10.7396903496        3.6170124067
  C        14.3549195990       11.4436570259        4.5900355979
  C        13.7820192381       12.5086468246        5.2815146371
  C        14.2610249856        9.6489631294        2.8436381549
  C        14.2561376156        9.6567638072        1.4219400519
  C        13.7428669980       10.7588430968        0.6680453889
  C        49.1269903682       21.2330637853        5.8797017895
  C        48.5502631336       22.4011460429        5.1526683956
  C        49.3001914175       23.0683032708        4.1715030028
  C        48.7332581288       24.1074681112        3.4383116731
  C        47.4028098870       24.5092757096        3.6671305860
  C        46.6720010710       23.8606260806        4.6808906384
  C        47.2344511518       22.8156983115        5.4102109673
  C        46.7724710474       25.5869326791        2.8698709598
  C        46.7612013947       25.5572247353        1.4481098977
  C        47.2610964657       24.4421214411        0.7045998974
  C        14.8601179372        8.5704544275        0.7086714131
  C        14.8919938057        8.5971316215        3.5202927726
  C        49.1132721250       21.2033819484       10.1453296531
  C        48.5278450513       22.3648062189       10.8725160559
  C        49.2669938491       23.0253790744       11.8655721582
  C        48.6906575142       24.0599226098       12.5970731575
  C        47.3603173047       24.4568426113       12.3587019211
  C        46.6400264829       23.8121295880       11.3349687620
  C        47.2135820646       22.7762321295       10.6031607173
  C        46.7217951465       25.5317699379       13.1497490361
  C        46.7333350242       25.5280305798       14.5714604200
  C        47.2487799369       24.4288146008       15.3278372354
  C        40.6205636502       17.1104584284       15.3066845157
  C        40.6309944144       17.1119180353       12.4969364859
  C        11.8831033475       14.0865442624       10.2855353674
  C        12.4724555300       12.9108706043       10.9898233170
  C        11.7148378439       12.1773894681       11.9156484501
  C        12.2814600779       11.0949381256       12.5840302715
  C        13.6204207488       10.7214980636       12.3524878654
  C        14.3585506484       11.4374035991       11.3920577252
  C        13.7930808736       12.5185628819       10.7193771201
  C        14.2539636555        9.6246804192       13.1228683900
  C        14.2524110052        9.6444855836       14.5447094055
  C        13.7423772173       10.7533515292       15.2917927183
  C        22.5145806168        3.2448346560        5.7535508691
  C        23.2350643186        4.3477251322        5.0561554643
  C        24.2328904346        4.0629584264        4.1119281440
  C        24.8665880913        5.0989827451        3.4306578664
  C        24.5188657413        6.4428840337        3.6728379343
  C        23.5495372758        6.7191015637        4.6545214055
  C        22.9110815680        5.6848312911        5.3344083267
  C        25.1297649945        7.5463439299        2.8959895539
  C        25.0989146806        7.5394550499        1.4744182286
  C        24.3924226879        6.5419907801        0.7299742200
  C        38.2987961915       31.9277459307        5.8515812728
  C        37.5586278657       30.8382147425        5.1489990468
  C        36.5934744062       31.1444374427        4.1771750153
  C        35.9645961407       30.1261295117        3.4656160507
  C        36.2853730427       28.7750325765        3.7027273236
  C        37.2201169641       28.4761427701        4.7120189398
  C        37.8529817747       29.4935196831        5.4228754707
  C        35.6760307686       27.6864805695        2.9032994008
  C        35.7167373571       27.7014803136        1.4814579121
  C        36.4308203457       28.7015765306        0.7485740329
  C        25.7213202056        8.6088751545        0.7529593450
  C        25.7325046269        8.6191533194        3.5649318486
  C        38.3307403144       31.9612231334       10.1598743269
  C        37.6140538253       30.8877376354       10.9091852628
  C        36.6815502115       31.1972230831       11.9112767131
  C        36.0719266509       30.1800655929       12.6438882244
  C        36.3798390544       28.8268037967       12.3984344031
  C        37.2932653949       28.5271048461       11.3690272350
  C        37.9047935054       29.5408809003       10.6377089230
  C        35.7648973360       27.7283196435       13.1801176410
  C        35.7619256251       27.7230556878       14.6026967995
  C        36.4510655001       28.7127176806       15.3718696015
  C        46.1352844703       26.6206408291       15.2816163623
  C        46.0879476513       26.5802121387       12.4737153579
  C        22.4614319309        3.2560051191       10.2581165852
  C        23.1562389989        4.3633929421       10.9814975817
  C        24.1580096507        4.0753238488       11.9222282654
  C        24.7874562050        5.1039235704       12.6189822425
  C        24.4356015043        6.4506779850       12.3980236919
  C        23.4568320259        6.7318797027       11.4258176771
  C        22.8227184703        5.7035704766       10.7293912979
  C        25.0690877865        7.5473958817       13.1718658003
  C        25.0680838124        7.5393342392       14.5948045624
  C        24.3760868734        6.5427822080       15.3531209173
  C        26.6253767663       17.8621830439        5.7790186984
  C        25.3195818731       17.9085112510        5.0536403555
  C        25.0633358365       18.8992220175        4.0923677106
  C        23.8497291620       18.9193583458        3.4074987574
  C        22.8552963258       17.9526108861        3.6614285702
  C        23.1084697059       16.9844874369        4.6517045350
  C        24.3238985273       16.9582328613        5.3338434462
  C        21.5813195847       17.9380777551        2.8981463365
  C        21.5806494825       17.9141613398        1.4754222755
  C        22.7853092528       17.7848475673        0.7142675787
  C        34.4368732687       17.1971610477        5.9159614865
  C        35.7275404532       17.1510240884        5.1675025826
  C        35.9289746329       16.1906400411        4.1637855505
  C        37.1099251733       16.1794940144        3.4267981565
  C        38.1225129343       17.1275199687        3.6726410104
  C        37.9230880687       18.0689609901        4.7005831745
  C        36.7394785229       18.0854947397        5.4350832895
  C        39.3763884714       17.1367481525        2.8851392184
  C        39.3690403316       17.1441575276        1.4631717724
  C        38.1605159128       17.2607378192        0.7067279021
  C        20.3332845826       17.9343304762        0.7679618272
  C        20.3566692470       17.9427886155        3.5813069428
  C        34.4375775225       17.2372909885       10.1890451931
  C        35.7391485022       17.1382450069       10.9113157163
  C        35.9443879030       16.1631115239       11.8985935897
  C        37.1358934436       16.1347957363       12.6195869534
  C        38.1507153830       17.0803555591       12.3730868166
  C        37.9517336695       18.0275673445       11.3511738726
  C        36.7597911785       18.0610770336       10.6338420263
  C        39.4009023947       17.1004380292       13.1647757652
  C        39.3816213869       17.1249141820       14.5859337632
  C        38.1661062805       17.2493722051       15.3301053986
  C        35.1219938577       26.6464283778       15.3025449965
  C        35.1781229646       26.6577058055       12.4929151350
  C        26.5697773393       17.8270939662       10.3241857109
  C        25.2547232420       17.8739335996       11.0283323013
  C        24.9890390776       18.8798147961       11.9696864917
  C        23.7720740386       18.9036865449       12.6448330111
  C        22.7906089367       17.9223495895       12.4010645370
  C        23.0496864164       16.9420581625       11.4260742458
  C        24.2680116072       16.9153789082       10.7501507327
  C        21.5277729288       17.9035463013       13.1753987755
  C        21.5530199487       17.8954505987       14.5970181734
  C        22.7718581072       17.7763770846       15.3377217451
  C        14.0467693184       17.8287993017       10.2892213844
  C        15.3505970841       17.8858192313       11.0149762059
  C        15.6067347572       18.8888732541       11.9629953970
  C        16.8154168889       18.9098169922       12.6563355779
  C        17.8024334402       17.9305007038       12.4242000129
  C        17.5509076727       16.9516353435       11.4441427930
  C        16.3417640158       16.9261015699       10.7522272171
  C        19.0716838193       17.9138213429       13.1928447879
  C        19.0715256716       17.9133970572       14.6153822258
  C        17.8650363345       17.8171976448       15.3777168657
  C        46.8030666711       17.2166988912       10.1567122520
  C        45.5093987211       17.1489478661       10.8971447135
  C        45.3043386910       16.1703970088       11.8821530576
  C        44.1200350549       16.1466603224       12.6141668732
  C        43.1101310392       17.1010481793       12.3831482246
  C        43.3116208151       18.0579090736       11.3700347003
  C        44.4970453278       18.0858976830       10.6393236938
  C        41.8568243083       17.1094402469       13.1727438136
  C        41.8656237415       17.1211114115       14.5948663813
  C        43.0757807713       17.2257907053       15.3504285629
  C        20.3188597473       17.9236953668       15.3228238515
  C        20.2953520112       17.8922460259       12.5096893746
  C        46.7855538875       17.2335703807        5.8855124945
  C        45.4842945063       17.1336680432        5.1635863421
  C        45.2664277292       16.1408436248        4.1962076391
  C        44.0792731143       16.1183461107        3.4678281339
  C        43.0795730848       17.0857407497        3.6890838012
  C        43.2888443815       18.0496260038        4.6931801966
  C        44.4769925720       18.0784204387        5.4167161211
  C        41.8314867334       17.1089788545        2.8939262641
  C        41.8528031195       17.1202057802        1.4725170041
  C        43.0697974954       17.2222737626        0.7274963707
  C        46.1531030309       26.6370808921        0.7263856161
  C        46.1627001934       26.6561469736        3.5360172096
  C        14.0467339914       17.8325025736        5.7088706138
  C        15.3685716345       17.9086374371        5.0197510584
  C        15.6420217231       18.9243485961        4.0912874831
  C        16.8715711865       18.9630572001        3.4373357462
  C        17.8561388074       17.9851767337        3.6852332537
  C        17.5896444435       16.9988430327        4.6524434036
  C        16.3621784124       16.9596543425        5.3101192115
  C        19.1234336155       17.9605351525        2.9154868831
  C        19.0985853578       17.9360488890        1.4938283459
  C        17.8782308831       17.8273382021        0.7539183880
  C        28.8109248580       14.0891460275       10.3885352229
  C        28.1981391662       12.9152527914       11.0750657872
  C        28.9267548686       12.1649950212       12.0099307139
  C        28.3283104106       11.0905625572       12.6631701779
  C        26.9876359308       10.7409758622       12.4039427250
  C        26.2806160199       11.4706091955       11.4314918692
  C        26.8764532351       12.5462924057       10.7777749307
  C        26.3213127966        9.6600501760       13.1664960449
  C        26.3161765290        9.6840454514       14.5876792036
  C        26.8226242337       10.7963981110       15.3320386905
  C        32.1787813121       21.2357675515       10.1470468509
  C        32.7748633179       22.4008217433       10.8689909379
  C        32.0222716300       23.0864851443       11.8350050794
  C        32.5906033485       24.1287192907       12.5615560338
  C        33.9282245963       24.5133355767       12.3450469181
  C        34.6639620567       23.8456136300       11.3477769400
  C        34.0973529254       22.7987480920       10.6221648350
  C        34.5542628856       25.5898365021       13.1478361863
  C        34.5334168116       25.5640426501       14.5696721293
  C        34.0133276141       24.4521092621       15.3047286894
  C        25.7095238159        8.6053666544       15.3079679376
  C        25.6813099188        8.6107249248       12.4943984108
  C        32.0778577926       21.1972046648        5.8731738841
  C        32.6482686250       22.3571625100        5.1248638022
  C        31.9120118627       23.0142725490        4.1267545128
  C        32.4853746194       24.0551553791        3.3977050877
  C        33.8089214654       24.4702748504        3.6475243976
  C        34.5264208070       23.8264017958        4.6740661271
  C        33.9585148782       22.7819337409        5.3981639126
  C        34.4498582194       25.5572768331        2.8698734623
  C        34.4782380531       25.5481989088        1.4478981809
  C        33.9857303350       24.4455051907        0.6811890666
  C        40.6137542810       17.1154062078        0.7516313172
  C        40.6017997451       17.1347961181        3.5617673181
  C        28.7542664390       14.0702127477        5.8154381624
  C        28.1520656079       12.9199678933        5.0781846949
  C        28.8864445152       12.2361266190        4.0971803238
  C        28.3109980514       11.1755245401        3.4012115323
  C        26.9846735218       10.7735864184        3.6587197794
  C        26.2680032516       11.4458404530        4.6666245177
  C        26.8419329587       12.5057071285        5.3655867987
  C        26.3440067013        9.6817893691        2.8864155802
  C        26.3286370620        9.6958561947        1.4642714511
  C        26.8257555774       10.8037642536        0.7081510016
  C        18.1355585560        3.1811290905       10.3171592818
  C        17.4064004631        4.2783302668       11.0158201184
  C        16.3904035880        4.0000372692       11.9430753615
  C        15.7427160989        5.0400500262       12.6065328153
  C        16.0949298929        6.3837534709       12.3671216373
  C        17.0846719245        6.6532163733       11.4037096661
  C        17.7337423825        5.6158426717       10.7386754537
  C        15.4704930745        7.4914116176       13.1301548417
  C        15.4855186245        7.4905578507       14.5518733043
  C        16.1870912343        6.4969570321       15.3050447763
  C        42.9458267023       31.8596273985       10.0728677744
  C        43.6461971819       30.7718819670       10.8168435436
  C        44.5913493223       31.0932333976       11.8032593421
  C        45.1970657810       30.0876990495       12.5509548724
  C        44.8710398577       28.7345861802       12.3357962582
  C        43.9456751627       28.4202280499       11.3221531006
  C        43.3368656224       29.4253560900       10.5740828755
  C        45.4885749992       27.6552560810       13.1389922048
  C        45.4925939645       27.6807849122       14.5606953551
  C        44.8055187267       28.6888154317       15.3073584898
  C        14.8564029067        8.5629587949       15.2642415380
  C        14.8753730411        8.5632711933       12.4515623932
  C        42.9465176047       31.9617833262        5.8090095516
  C        43.6918744092       30.8855903766        5.0956286057
  C        44.6561380888       31.1914921607        4.1230081330
  C        45.2777079240       30.1718897261        3.4053223525
  C        44.9543200172       28.8215417875        3.6433064162
  C        44.0213043807       28.5239025245        4.6545369530
  C        43.3930010182       29.5406759131        5.3666770246
  C        45.5632263351       27.7240882539        2.8580181400
  C        45.5332280864       27.7172762173        1.4367157089
  C        44.8268518132       28.7074677137        0.6837554051
  C        35.0964300838       26.6371688510        0.7480041340
  C        35.0603397604       26.6136031327        3.5585999683
  C        18.1487418376        3.2471133896        5.7065400439
  C        17.4302212023        4.3438822065        4.9972736143
  C        16.4147295900        4.0526475362        4.0739756458
  C        15.7664294510        5.0832973100        3.3986364761
  C        16.1213682508        6.4285133822        3.6211092910
  C        17.1131221022        6.7118589677        4.5779854382
  C        17.7608117550        5.6829338150        5.2577240959
  C        15.4907422931        7.5241645394        2.8486866738
  C        15.4964461777        7.5074175712        1.4275531173
  C        16.1932758995        6.5057596807        0.6808597725
  H        10.6721909450       12.4652392971        3.9051430792
  H        11.6944523163       10.5504187716        2.6633312923
  H        15.3921319088       11.1694810942        4.7713763223
  H        14.3517256989       13.0722172795        6.0164950986
  H        13.3758784495       11.6309735404        1.2013613507
  H        50.3228380700       22.7481317877        3.9866229944
  H        49.3197033735       24.6226044196        2.6806126359
  H        45.6426251406       24.1616468527        4.8642970258
  H        46.6636021006       22.2906072359        6.1725315657
  H        47.6297850929       23.5758048645        1.2462816340
  H        14.8726516496        8.5885601559        4.6086060151
  H        50.2869930099       22.7024133622       12.0605673192
  H        49.2690437120       24.5752563983       13.3606664441
  H        45.6107119477       24.1095721916       11.1457381416
  H        46.6528654663       22.2541909204        9.8314374418
  H        47.6076790380       23.5517532142       14.7969230086
  H        40.6348206015       17.0702397881       11.4093799492
  H        48.6870798951       14.0951257010        7.8000519680
  H        10.6812552087       12.4661986259       12.0928168063
  H        11.6896100850       10.5242885267       13.2964730197
  H        15.3941528960       11.1599108568       11.2064736382
  H        14.3656327396       13.0882246006        9.9912403526
  H        13.3756316765       11.6220066918       14.7531691882
  H        47.9302732010       14.2185385761        9.7110240693
  H        47.7799417734       14.3734986882        6.4952629736
  H        49.0835446672       18.5521581676       10.8672451430
  H        10.4162554474       14.1343251529        7.9987214401
  H        24.4894632985        3.0231412523        3.9219684908
  H        25.6399762670        4.8770478976        2.6984971055
  H        23.2734430307        7.7534987810        4.8485072771
  H        22.1406559540        5.8899673056        6.0737250524
  H        23.8317505720        5.7857746461        1.2716068287
  H        36.3609733919       32.1884622958        3.9808781264
  H        35.2171924403       30.3689792098        2.7134267040
  H        37.4764360722       27.4361846752        4.9036241798
  H        38.6002042303       29.2690282950        6.1804586261
  H        36.9934897035       29.4503772476        1.2984087040
  H        25.7705744885        8.6017189181        4.6526510010
  H        36.4538789689       32.2415336433       12.1129200874
  H        35.3422747131       30.4271496799       13.4119027034
  H        37.5449911958       27.4869442411       11.1728446202
  H        38.6309111834       29.3133086925        9.8610320849
  H        37.0302193266       29.4698204237       14.8509025376
  H        46.1096287017       26.5877636292       11.3856845141
  H        44.6684683034       35.1163191122        7.8139707476
  H        24.4344206307        3.0366355579       12.0886264207
  H        25.5681897965        4.8732785310       13.3406532042
  H        23.1735607739        7.7669599486       11.2458846275
  H        22.0514958681        5.9184895273        9.9932968103
  H        23.8022552095        5.7877656810       14.8236103394
  H        44.9543575384       34.3908511821        9.6954531666
  H        44.9022993041       34.2069855756        6.4906971214
  H        40.6667882642       33.2097839510       10.8534706225
  H        23.1504726950        1.9582555139        8.0054960819
  H        25.8269251666       19.6489831772        3.8981659827
  H        23.6566661150       19.6935341275        2.6679637677
  H        22.3535064114       16.2281541809        4.8566364026
  H        24.5293772919       16.1961707349        6.0819507218
  H        23.7267899751       17.6592478139        1.2412868909
  H        35.1443904660       15.4632634238        3.9698732492
  H        37.2644021326       15.4254730445        2.6580882909
  H        38.6961482812       18.8094790459        4.8954966724
  H        36.5702840690       18.8261082783        6.2133978508
  H        37.2226442011       17.3875359952        1.2395887680
  H        20.3643646767       17.9840921213        4.6691373446
  H        35.1530701379       15.4446025025       12.0996946071
  H        37.2927275703       15.3754609087       13.3826203588
  H        38.7285107020       18.7635994124       11.1544513744
  H        36.5856944606       18.8112397766        9.8663003056
  H        37.2325442874       17.3669818690       14.7874943384
  H        35.1604511926       26.6826483286       11.4049743334
  H        28.5060953498       21.0699420609        7.9601512640
  H        25.7490249295       19.6352709071       12.1550707103
  H        23.5666102835       19.6868202984       13.3713762778
  H        22.3001897727       16.1774957001       11.2320904841
  H        24.4844436417       16.1457745952       10.0131052364
  H        23.7028616352       17.6452468114       14.7941289447
  H        29.0165980657       21.7151885896        9.7529103083
  H        29.1666443722       21.7368693695        6.6263576747
  H        32.0788612128       18.5388333587       10.9924990698
  H        27.3964342218       19.0610762071        8.0715390801
  H        14.8482132791       19.6478754178       12.1409877605
  H        17.0102864779       19.6941323414       13.3846180619
  H        18.3023957069       16.1876100379       11.2557310539
  H        16.1364840712       16.1570356421       10.0113695413
  H        16.9219245937       17.7020165810       14.8514544143
  H        46.0905049565       15.4423952798       12.0680821894
  H        43.9629396957       15.3808720408       13.3706295664
  H        42.5400393579       18.8027527704       11.1863897350
  H        44.6688010224       18.8398332935        9.8746067620
  H        44.0159114144       17.3395103066       14.8182731232
  H        20.2886158252       17.9207216900       11.4215246556
  H        46.0426397812       15.4002433875        4.0172647763
  H        43.9135825790       15.3466913773        2.7191565165
  H        42.5230590498       18.8018157938        4.8708500203
  H        44.6587133809       18.8414288873        6.1696303424
  H        44.0054674170       17.3322830828        1.2680981589
  H        46.1998949152       26.6828612224        4.6234474443
  H        52.7413078415       21.0626667955        8.1946970693
  H        14.8810446140       19.6773861122        3.8985898475
  H        17.0819731801       19.7537896195        2.7204026855
  H        18.3407082113       16.2373355033        4.8522888886
  H        16.1419554025       16.1848075683        6.0404122502
  H        16.9450164420       17.7199874507        1.2985481797
  H        52.3227663351       21.6733211761        6.2941122653
  H        52.0134815367       21.7022641713        9.4956351111
  H        49.0682714037       18.6078501088        5.2037154004
  H        13.2478291357       19.0159503702        7.9774167616
  H        29.9602891425       12.4383225350       12.2102924509
  H        28.8943881332       10.5089682012       13.3875896495
  H        25.2445993855       11.2106007410       11.2242168954
  H        26.3278104651       13.1311997701       10.0436662298
  H        27.1813725770       11.6668003412       14.7909530623
  H        30.9949372546       22.7770029377       12.0113512485
  H        32.0004522370       24.6598790226       13.3052112194
  H        35.6992754468       24.1320403806       11.1742121652
  H        34.6713434808       22.2590910905        9.8723338210
  H        33.6585385160       23.5851239273       14.7548623427
  H        25.7058283439        8.5935040429       11.4062188518
  H        30.8913473457       22.6940729117        3.9295199831
  H        31.9056663351       24.5656498053        2.6315989804
  H        35.5505583593       24.1342488103        4.8747837656
  H        34.5193423394       22.2653742430        6.1734681735
  H        33.6094809563       23.5729317700        1.2071960605
  H        40.5974784403       17.0986002756        4.6495100161
  H        32.5054782194       14.1486372092        8.2527980084
  H        29.9083970796       12.5500403369        3.8972607718
  H        28.8889486375       10.6414404732        2.6501385811
  H        25.2415750570       11.1492896875        4.8725105693
  H        26.2843110945       13.0397727874        6.1312183103
  H        27.1849940927       11.6805918958        1.2390439122
  H        33.3094752548       14.2302730523        6.4671075600
  H        33.4071261841       14.4073426050        9.5961826009
  H        32.0780082261       18.4855840467        5.1417697110
  H        30.2229091699       14.1934253726        8.0693503608
  H        16.1180920522        2.9635705019       12.1292834418
  H        14.9530589734        4.8207606206       13.3219881067
  H        17.3675170792        7.6860393660       11.2109138077
  H        18.5161187273        5.8185392320       10.0112027631
  H        16.7538724744        5.7397780776       14.7715556626
  H        44.8273802750       32.1403416493       11.9776633294
  H        45.9367057745       30.3415413991       13.3070949598
  H        43.6834752089       27.3780984844       11.1516439025
  H        42.6007299362       29.1900173795        9.8089563824
  H        44.2302917096       29.4366927368       14.7690706570
  H        14.8519678388        8.5467145975       11.3633319905
  H        44.8994484266       32.2341857845        3.9313048850
  H        46.0244080797       30.4131722706        2.6518944430
  H        43.7648603495       27.4841335129        4.8465757291
  H        42.6469365742       29.3179205231        6.1255618082
  H        44.2685211232       29.4704796564        1.2183470304
  H        35.0118087902       26.6253276180        4.6458809083
  H        36.6054251163       35.1341033831        8.1806958672
  H        16.1434261911        3.0131039897        3.9044449756
  H        14.9739165946        4.8565351328        2.6887388574
  H        17.3970500139        7.7472727892        4.7545236797
  H        18.5440840478        5.8934446046        5.9820429374
  H        16.7649039889        5.7556628996        1.2192906062
  H        36.2790083193       34.4822940680        6.2730051697
  H        36.3816129366       34.2088050899        9.4993208863
  H        40.5797952628       33.2025013133        5.1535605874
  H        17.4712942661        1.9476706513        7.9741179391
  H        29.0370385117       19.3199553500       12.5334588340
  H        29.7367236932       19.5787836946        3.5175400402
  H        31.8852333734       15.8080779346        3.5048263517
  H        31.3459883598       15.6862754352       12.5493544417
  H        28.4877972029       17.7490832677       14.9310137204
  H        29.8173871593       15.4854517642       14.6766261201
  H        31.7684604329       19.8605508046        1.5374798104
  H        33.0822559082       17.6351107306        1.4144934027
  H        28.0967428545       17.1154837733        2.0880704991
  H        32.5275994067       18.9049428828       15.4793150110
  H        18.8538024423        0.8689576629       12.3352719754
  H        40.5281620010       35.2287720679        3.9519247896
  H        42.3248962154       34.4197082553        3.5897845458
  H        22.0874751196        0.6926759160       12.3513134714
  H        11.5969881682       18.7125541777       12.3823625228
  H        52.2648737768       18.4314208165        3.6771919532
  H        49.2551815175       16.4766345044        3.5844986255
  H        10.1501486012       15.7983036688       12.2928081749
  H        50.8502136226       17.6924404381        3.9541791224
  H        10.0460513985       17.3946691127       12.0519002757
  H        20.2154178629        0.0023933391       12.0418455521
  H        39.1838868381       36.1244903532        3.6865525658
 Ni        31.1152622423       17.8694885632        2.7555669359
 Ni        31.4119652612       16.6178086745        0.0819049825
 Ni        30.1438693529       18.8202935204        0.0835268079
 Ni        30.1382037067       17.4500829497       13.2420991664
  O        10.6498959141       14.3651379502        5.4858735537
  O        12.6131534740       14.6575465505        6.5838724003
  O        49.1478571371       16.8458448448        7.9897722843
  O        50.3503135342       20.9357028481        5.6479932238
  O        48.3485681193       20.5932740669        6.6659244005
  O        11.0517836843       17.0537040474        6.5007516696
  O        50.3209788575       20.8816785604       10.4068811225
  O        48.3467005969       20.5867293827        9.3271374420
  O        49.5437173544       18.2483504183       10.0681748968
  O        12.3591502999       18.6246064414        7.9996317816
  O        48.6931991537       14.1486644565        6.7512903011
  O         8.2099007592       14.2104796113        9.3225463756
  O        10.7353717565       14.5067907040       10.6643055675
  O        12.5718222813       14.5828366054        9.3284848030
  O        22.8446396786        2.0427413090        5.4872945087
  O        21.6065242860        3.5927198391        6.5887136744
  O        42.0581972665       34.1374914001        7.9788824526
  O        37.9811333494       33.1359496310        5.5721723175
  O        39.2173298384       31.5748898470        6.6658727297
  O        20.3084839016        1.0396702274        6.5022195825
  O        38.0242902487       33.1848473449       10.4157919615
  O        39.2185208205       31.5829863877        9.3272867987
  O        40.6522288479       33.7693748136       10.0601143547
  O        18.2557469256        1.3761751108        7.9967332419
  O        44.6222414650       35.1005517223        6.7588011729
  O        24.2054192156        0.0000039335        9.3207245863
  O        22.7529449405        2.0574026400       10.5837000905
  O        21.6247199954        3.5961995179        9.3431207823
  O        27.5042031592       18.7523913933        5.4929199923
  O        26.7652473691       16.9362598614        6.6515441375
  O        30.6396182132       19.3495740692        8.0579049662
  O        33.5847939760       16.2753840004        5.6645632963
  O        34.2739089033       18.1671813457        6.7352826511
  O        29.5755017232       17.0560848905        6.5730271411
  O        33.5519834430       16.3391238301       10.4181026748
  O        34.2992070436       18.2383477286        9.4074841025
  O        31.6479445346       18.3166142702       10.1499844953
  O        30.3227396252       15.1595576895        8.0806118204
  O        28.5549710307       21.0287811728        6.8955191091
  O        28.5148466766       20.9542259044        9.4139535901
  O        27.4573333042       18.6791574046       10.6583906538
  O        26.6939693202       16.9287207233        9.4130738385
  O        13.1485754300       18.6929803660       10.5873779849
  O        13.9194316153       16.9163167904        9.4051297378
  O        50.5962623360       19.3501685577        8.0203718941
  O        47.6826240401       16.3271084948       10.4174170425
  O        46.9508113799       18.1757431120        9.3250497825
  O        11.0698878247       17.0154379775        9.4895352672
  O        47.6749830313       16.3361128043        5.6522876827
  O        46.9262768896       18.2359870626        6.6639685332
  O        49.5686826251       18.3176293035        5.9823250958
  O        10.3186471767       15.1001551980        7.9971186499
  O        52.6707695473       21.0278767906        9.2418070093
  O        12.1468368376       20.8911688167        6.6732734615
  O        13.1084313792       18.6136205369        5.3255892377
  O        13.9575773099       16.9872644773        6.6651405394
  O        29.9953447468       14.4397777443       10.7228066683
  O        28.0887332890       14.6540053051        9.4938092429
  O        32.1303744783       16.8510729085        8.0708005526
  O        30.9632964644       20.9490528409       10.4091795245
  O        32.9441289371       20.6011973407        9.3360405235
  O        29.5619326819       17.0746951980        9.5718407282
  O        30.8488760083       20.8849314178        5.6563866092
  O        32.8679139022       20.5864280779        6.6645068675
  O        31.6840161926       18.2480653024        5.9996772430
  O        28.2857879138       18.6712032630        8.0737330661
  O        32.4905371445       14.2127904395        9.3280183676
  O        32.4037718628       14.2189572539        6.8198222770
  O        29.9274156256       14.4468776853        5.4887273604
  O        28.0429848620       14.5882761161        6.7491513286
  O        17.8892718540        1.9666221924       10.6627778117
  O        18.9562828384        3.5271317909        9.4079054234
  O        39.1684938332       34.1386204633        7.9971283327
  O        43.2801777188       33.0589217445       10.3317499572
  O        42.0343742485       31.5064351671        9.2416217929
  O        20.3177761161        1.0369450444        9.4798401123
  O        43.2760976242       33.1826269986        5.5748806944
  O        42.0052296149       31.5841252212        6.5829633350
  O        40.5788577486       33.7749756070        5.9358176035
  O        22.3674520768        1.3848342362        7.9978570720
  O        36.6728584917       35.0997205140        9.2333348113
  O        16.4457434068        0.0641823499        6.6682218079
  O        17.9365501697        2.0433562270        5.3264149318
  O        18.9191709981        3.5931267406        6.6659190212
  O        29.9357395383       18.7575602705        4.0024205351
  O        29.7818692047       18.8997481047       12.0636766959
  O        31.3026813869       16.4141102454        3.9983724660
  O        31.1863406518       16.4840877597       12.0075816391
  O        32.3868787456       16.9940331987        1.6504986794
  O        28.2633210988       16.8616378951        1.1613299868
  O        30.5847021430       16.0509149697       14.4834418805
  O        31.7678381684       18.3825028746       15.1633954090
  O        30.9135698276       19.4113220385        1.6596233227
  O        29.1428156006       18.3823257435       14.5689826797
  O        39.4567957206       35.2437210519        4.0019837072
  O        19.1417568223        0.0045170772       11.9904553981
  O        41.9694555178       35.1726444141        4.0870491672
  O        21.6913472803       -0.0691024741       11.8959501347
  O        51.3649997563       18.6143328161        4.0053929046
  O        10.7510970973       18.7471275196       11.9049579171
  O        50.0795842653       16.4127742635        4.0918273839
  O         9.5242727347       16.4831314809       11.9911734086
 Zr         9.2975261625       16.0526493461        6.1825134079
 Zr        49.8371105009       16.0066577143        9.7464496263
 Zr        22.0737120726        0.0308867634        6.1885865424
 Zr        42.4612860172       35.1543865328        9.8010407980
 Zr        29.6051419393       19.0672261267        6.2622056746
 Zr        29.5691936572       19.1652794774        9.8734378017
 Zr        11.0386948893       19.0517501796        9.8278305301
 Zr        11.0447137417       19.1545436052        6.2508653476
 Zr        31.3339277272       16.1037628308        9.8616276543
 Zr        31.3872388568       16.0184206376        6.2559412860
 Zr        18.6017165171       -0.0004602741        9.7633133532
 Zr        18.5070667618       -0.0069638490        6.2137416070
 Zr        12.3032584903       16.3235144552        7.9902262104
 Zr        48.6171219096       18.8329662949        8.0103233877
 Zr        20.3162129401        2.4749694412        7.9903031500
 Zr        40.6439808476       32.6879302429        7.9780350316
 Zr        28.3364667075       16.3337382799        8.0821074247
 Zr        32.6205930780       18.8302379629        8.0534371286
  H        29.1751937548       16.4907128150        1.1877585228
  H        31.0351717555       15.3609483071        0.7029351202
