     563
 i =      161, E =     -4694.9439204397
  C        11.8591273463       14.0537222001        5.7415712724
  C        12.4566520513       12.8907872652        5.0234672075
  C        11.7048587417       12.1717743177        4.0819083441
  C        12.2811752499       11.1095829683        3.3895183242
  C        13.6218253659       10.7398581535        3.6170314214
  C        14.3550887788       11.4435033502        4.5903951962
  C        13.7822690079       12.5084894079        5.2819710063
  C        14.2612265066        9.6491360056        2.8435733621
  C        14.2561829463        9.6568825460        1.4218606019
  C        13.7427760723       10.7588635987        0.6679091092
  C        49.1271336102       21.2328716984        5.8795219922
  C        48.5506168130       22.4010408703        5.1525914089
  C        49.3005470958       23.0681780120        4.1713879107
  C        48.7337056703       24.1074621545        3.4382967406
  C        47.4032735064       24.5094100390        3.6670979695
  C        46.6724712858       23.8607808902        4.6808909652
  C        47.2348287617       22.8157482745        5.4101320061
  C        46.7730025051       25.5871519234        2.8698663983
  C        46.7618850944       25.5574919655        1.4480928583
  C        47.2617152880       24.4423798335        0.7045531443
  C        14.8601091192        8.5705507337        0.7085643826
  C        14.8922637192        8.5972989896        3.5201825833
  C        49.1135401843       21.2034276137       10.1453254285
  C        48.5281852842       22.3647518458       10.8725919089
  C        49.2673444981       23.0253749074       11.8656251239
  C        48.6910734502       24.0600006581       12.5970421443
  C        47.3607451400       24.4570057368       12.3586661473
  C        46.6404034844       23.8122088612       11.3350117302
  C        47.2139081134       22.7762354229       10.6032813532
  C        46.7222982619       25.5319926736       13.1496958895
  C        46.7339968087       25.5283217041       14.5714101740
  C        47.2493980404       24.4290887432       15.3277893338
  C        40.6321699870       17.1188377087       15.3221959515
  C        40.6524524485       17.1537272517       12.5131567457
  C        11.8832343533       14.0865904878       10.2852991562
  C        12.4724223711       12.9107048056       10.9893366876
  C        11.7148377168       12.1777534760       11.9156340701
  C        12.2812604177       11.0952664345       12.5841093948
  C        13.6199703017       10.7211469961       12.3521636785
  C        14.3579166546       11.4363601277       11.3910501146
  C        13.7926820124       12.5175865805       10.7182767925
  C        14.2534713578        9.6244074600       13.1226862615
  C        14.2521119038        9.6443886923       14.5445441450
  C        13.7420915017       10.7532553596       15.2916474759
  C        22.5122373520        3.2449088858        5.7544096785
  C        23.2258576152        4.3521137505        5.0579704740
  C        24.2257212747        4.0770344445        4.1133825499
  C        24.8495641081        5.1200612829        3.4336369707
  C        24.4887382958        6.4600306828        3.6781439093
  C        23.5180746462        6.7265935243        4.6608338942
  C        22.8899810053        5.6856831812        5.3392124700
  C        25.0854728840        7.5710216756        2.9023460003
  C        25.0534743592        7.5646371597        1.4809788563
  C        24.3601152344        6.5584636112        0.7360033768
  C        38.2988263589       31.9264241187        5.8488020055
  C        37.5593118013       30.8373664732        5.1422637204
  C        36.5944043896       31.1448261321        4.1700282944
  C        35.9629583445       30.1283780780        3.4572594005
  C        36.2792486934       28.7753661927        3.6919879788
  C        37.2154554467       28.4754536798        4.7003486781
  C        37.8508746046       29.4910132676        5.4125688227
  C        35.6631713443       27.6873094426        2.8946612891
  C        35.6938771595       27.7025037475        1.4713983240
  C        36.4023950923       28.7019554077        0.7327816229
  C        25.6621234414        8.6421419586        0.7604682881
  C        25.6759998072        8.6497031280        3.5724505054
  C        38.3251137863       31.9587450045       10.1583458093
  C        37.5957971365       30.8857917863       10.9004144730
  C        36.6638270762       31.1975573166       11.9031325930
  C        36.0419675397       30.1828773227       12.6299625718
  C        36.3346946114       28.8263578516       12.3806394678
  C        37.2454956700       28.5247032180       11.3486253755
  C        37.8697110851       29.5362415732       10.6229572617
  C        35.7140683780       27.7299134343       13.1650473124
  C        35.7199418563       27.7243868057       14.5893069349
  C        36.4141801818       28.7127459619       15.3551836941
  C        46.1360061655       26.6209595298       15.2815708265
  C        46.0883217880       26.5803663405       12.4736624831
  C        22.4603470397        3.2567864402       10.2592933569
  C        23.1512407836        4.3663796630       10.9841870131
  C        24.1499882453        4.0828887619       11.9295512139
  C        24.7737920656        5.1145161795       12.6275478182
  C        24.4195479709        6.4601420705       12.4031874937
  C        23.4442101205        6.7366735273       11.4260669931
  C        22.8156699558        5.7055058114       10.7287333834
  C        25.0440686517        7.5617557921       13.1784983427
  C        25.0323626969        7.5593285636       14.6016484135
  C        24.3474878758        6.5573744322       15.3590784632
  C        26.6768055958       17.8767688201        5.7307042590
  C        25.3780575332       17.9671007903        5.0000189682
  C        25.1420309892       18.9407711645        4.0162630961
  C        23.9140759444       18.9903485084        3.3553771248
  C        22.8868356072       18.0670081396        3.6462805918
  C        23.1234500755       17.1172454215        4.6588576951
  C        24.3472160698       17.0655101699        5.3216598812
  C        21.6065889140       18.0554271610        2.8902688245
  C        21.6050020780       18.0170926633        1.4671367456
  C        22.8091007366       17.8692864183        0.7089309851
  C        34.4389244086       17.1907707624        5.9155014058
  C        35.7306782561       17.1442249016        5.1761549609
  C        35.9362248361       16.1768418197        4.1791970653
  C        37.1162554798       16.1660693840        3.4421187719
  C        38.1242830077       17.1198959113        3.6827456704
  C        37.9227826388       18.0662096642        4.7057562515
  C        36.7390646176       18.0841134642        5.4393646044
  C        39.3781334747       17.1280215293        2.8964234040
  C        39.3737123769       17.1395132457        1.4745722772
  C        38.1673235239       17.2638986345        0.7164021544
  C        20.3585043637       18.0322793042        0.7575034949
  C        20.3790405382       18.0528829698        3.5722085188
  C        34.4763099570       17.2415993791       10.1855777512
  C        35.7763290354       17.1694719047       10.9051668562
  C        35.9807885070       16.1939473965       11.8931218283
  C        37.1667339418       16.1722357543       12.6201438165
  C        38.1756292701       17.1253078911       12.3800337017
  C        37.9771373905       18.0748979441       11.3601026814
  C        36.7893669284       18.1021931765       10.6349352165
  C        39.4209790439       17.1413008971       13.1769025831
  C        39.3956086690       17.1480270206       14.5982789597
  C        38.1777943988       17.2672292393       15.3394650348
  C        35.0849659090       26.6474885181       15.2945201947
  C        35.1161381564       26.6611375793       12.4832552942
  C        26.6538517291       17.8401587700       10.3802219842
  C        25.3402904696       17.9217919914       11.0775056188
  C        25.0820174707       18.9193286336       12.0313540717
  C        23.8487650172       18.9681930713       12.6782680122
  C        22.8416819755       18.0187901024       12.4034378650
  C        23.0967596294       17.0489736690       11.4155789267
  C        24.3267015919       16.9995230115       10.7635171180
  C        21.5679705007       18.0053597401       13.1652727233
  C        21.5850227520       17.9908663723       14.5880264728
  C        22.7992447031       17.8570967407       15.3330718292
  C        14.0544641555       17.8346343204       10.2870987296
  C        15.3667929293       17.9095400456       11.0043187882
  C        15.6202772977       18.9225330023       11.9434779462
  C        16.8336081801       18.9641238067       12.6298371213
  C        17.8338978789       17.9961393729       12.4027589367
  C        17.5852501574       17.0078592808       11.4302221169
  C        16.3709912975       16.9618356981       10.7449171931
  C        19.1066179479       17.9979509707       13.1735028668
  C        19.1029505983       18.0004847491       14.5981431980
  C        17.8964105474       17.8991726044       15.3603792225
  C        46.8062274543       17.2187615301       10.1592300688
  C        45.5177074147       17.1574328563       10.9065496570
  C        45.3122325434       16.1777217382       11.8901812638
  C        44.1318342011       16.1597717592       12.6281457196
  C        43.1280063626       17.1220867775       12.4044289305
  C        43.3310184606       18.0818882772       11.3945105628
  C        44.5118367587       18.1034289097       10.6571889703
  C        41.8754198312       17.1334350379       13.1930592817
  C        41.8797432761       17.1287205629       14.6148779282
  C        43.0883757986       17.2173848133       15.3745254652
  C        20.3480734752       18.0185758646       15.3106632315
  C        20.3352183906       17.9881050070       12.4956752592
  C        46.7856796016       17.2304406288        5.8904542024
  C        45.4817619738       17.1233611254        5.1773603096
  C        45.2613888021       16.1222561334        4.2193709639
  C        44.0730938488       16.0955643431        3.4937717917
  C        43.0765586213       17.0670499790        3.7095425042
  C        43.2867446483       18.0372108197        4.7070904445
  C        44.4760445791       18.0702095673        5.4277985433
  C        41.8314553188       17.0916544224        2.9117535958
  C        41.8574698370       17.1057552801        1.4909354847
  C        43.0779042771       17.2039764403        0.7512143105
  C        46.1538235446       26.6373649455        0.7263501765
  C        46.1630238330       26.6562775981        3.5359999469
  C        14.0528818121       17.8375388036        5.7077323442
  C        15.3783223326       17.9301297370        5.0182076385
  C        15.6396631492       18.9520304913        4.0917289237
  C        16.8687659832       19.0126711310        3.4362428942
  C        17.8719436424       18.0514208558        3.6778531693
  C        17.6165903954       17.0576509545        4.6419813788
  C        16.3889182088       16.9964952348        5.3014216721
  C        19.1436736889       18.0509332390        2.9068929200
  C        19.1223873080       18.0268523583        1.4830512311
  C        17.9059596638       17.9106525435        0.7375838395
  C        28.8021778579       14.0896783011       10.3974560850
  C        28.1844830470       12.9226965590       11.0849129561
  C        28.8864326778       12.2123180013       12.0705358617
  C        28.2807287522       11.1418895378       12.7227114585
  C        26.9590261543       10.7583611648       12.4154164468
  C        26.2808514659       11.4493245335       11.3950143141
  C        26.8835853949       12.5200523908       10.7407352878
  C        26.2831390194        9.6830074943       13.1754728863
  C        26.2561042566        9.7182926975       14.5964424263
  C        26.7335823647       10.8435466017       15.3406212339
  C        32.1336324330       21.1739155392       10.2287047376
  C        32.7078778096       22.3582651980       10.9245323577
  C        31.9748655095       23.0266855517       11.9191908154
  C        32.5412917845       24.0895420075       12.6168171864
  C        33.8597194278       24.5126691752       12.3510794563
  C        34.5703429482       23.8652886287       11.3210465963
  C        34.0059688641       22.8017772993       10.6200610264
  C        34.4952471558       25.5923888109       13.1427272143
  C        34.4935582322       25.5630767898       14.5662368447
  C        33.9977072094       24.4435145062       15.3056266345
  C        25.6568144168        8.6351139620       15.3155696817
  C        25.6583538448        8.6245835613       12.5022619693
  C        32.0879312221       21.1571132695        5.8341402517
  C        32.6440255104       22.3283391564        5.0984681758
  C        31.9142650472       22.9758565018        4.0885166076
  C        32.4823293668       24.0299326198        3.3746107537
  C        33.7952321695       24.4675866675        3.6453395509
  C        34.5034527854       23.8351598172        4.6862678843
  C        33.9409144286       22.7798968216        5.3981467764
  C        34.4358384617       25.5562972621        2.8684781425
  C        34.4613852388       25.5453278579        1.4452870714
  C        33.9806817305       24.4355600902        0.6823608377
  C        40.6206413905       17.1108037194        0.7666783539
  C        40.6009097239       17.1216949397        3.5765971412
  C        28.7132195260       14.0916046755        5.8182081089
  C        28.0930533347       12.9501754062        5.0881914963
  C        28.8116468414       12.2864231639        4.0813654124
  C        28.2300694341       11.2304845296        3.3853437562
  C        26.9134288983       10.8126968585        3.6672693573
  C        26.2129971458       11.4655919453        4.6995973431
  C        26.7926180793       12.5224095156        5.3992150827
  C        26.2726094237        9.7214152940        2.8950681907
  C        26.2524927542        9.7378964552        1.4726995434
  C        26.7292672797       10.8546548929        0.7167720378
  C        18.1354423647        3.1808130453       10.3172677487
  C        17.4061083741        4.2780381981       11.0158889434
  C        16.3900323921        3.9997476641       11.9430357683
  C        15.7422671289        5.0397625128       12.6064501512
  C        16.0945350112        6.3834469005       12.3670886710
  C        17.0844006160        6.6529166838       11.4038195793
  C        17.7335430301        5.6155359784       10.7388581091
  C        15.4700495333        7.4911375021       13.1300665748
  C        15.4853078212        7.4905035550       14.5517807408
  C        16.1869857727        6.4969662012       15.3049337290
  C        42.9457802731       31.8596081409       10.0728253296
  C        43.6462083319       30.7718872844       10.8168112450
  C        44.5916887539       31.0933152575       11.8029014922
  C        45.1975548421       30.0878466009       12.5505694241
  C        44.8713286357       28.7347316356       12.3357288940
  C        43.9456273412       28.4202854997       11.3224216132
  C        43.3366411426       29.4253522145       10.5743849943
  C        45.4890455966       27.6554717573       13.1389267783
  C        45.4932497945       27.6810701191       14.5606427804
  C        44.8062147845       28.6891149070       15.3073169023
  C        14.8562064840        8.5629362540       15.2641230616
  C        14.8748169266        8.5629007393       12.4514423299
  C        42.9464739219       31.9617252055        5.8090971554
  C        43.6917822599       30.8855402244        5.0955963850
  C        44.6563671772       31.1915169236        4.1233097535
  C        45.2780335719       30.1719735433        3.4056146331
  C        44.9544647490       28.8216123005        3.6432777394
  C        44.0210148813       28.5238936494        4.6540801989
  C        43.3926118240       29.5406099416        5.3662413399
  C        45.5635918167       27.7242402363        2.8579878443
  C        45.5338395074       27.7175055412        1.4366714009
  C        44.8275291376       28.7077453305        0.6837148913
  C        35.0701042840       26.6374392772        0.7411968123
  C        35.0494137367       26.6143320589        3.5531226064
  C        18.1486215829        3.2470006687        5.7066548379
  C        17.4303597382        4.3438948075        4.9970889811
  C        16.4147459807        4.0527404096        4.0739279873
  C        15.7665008588        5.0834291427        3.3985588240
  C        16.1215873175        6.4286079132        3.6209561202
  C        17.1135087952        6.7118936592        4.5776705243
  C        17.7611089135        5.6829141452        5.2574310122
  C        15.4909345925        7.5242934415        2.8485737064
  C        15.4965822254        7.5075870174        1.4274377146
  C        16.1933110386        6.5058605399        0.6807447361
  H        10.6726721048       12.4657819347        3.9050396686
  H        11.6947826621       10.5510381030        2.6631129313
  H        15.3921877255       11.1690237432        4.7719331059
  H        14.3519243074       13.0717869782        6.0172042527
  H        13.3757100599       11.6309910158        1.2011763021
  H        50.3231613203       22.7479561712        3.9864402405
  H        49.3201618352       24.6225708247        2.6805887580
  H        45.6431044254       24.1618228539        4.8643211168
  H        46.6638747793       22.2907396039        6.1724278501
  H        47.6302083760       23.5759627055        1.2462035031
  H        14.8729469081        8.5886848307        4.6084968962
  H        50.2873266190       22.7024050481       12.0606622778
  H        49.2694594357       24.5753903587       13.3605956838
  H        45.6110889016       24.1096544265       11.1457770665
  H        46.6531032007       22.2542090521        9.8316143050
  H        47.6080834659       23.5519258124       14.7969013489
  H        40.6594661131       17.1234679416       11.4253015793
  H        48.6872037406       14.0947790922        7.8000370770
  H        10.6814476044       12.4670262515       12.0931670864
  H        11.6894135861       10.5250682060       13.2969150093
  H        15.3932490558       11.1582025208       11.2049616881
  H        14.3651301519       13.0867273266        9.9896515855
  H        13.3751624415       11.6218442160       14.7530427225
  H        47.9303276903       14.2183807503        9.7108547198
  H        47.7801724049       14.3737855892        6.4952861368
  H        49.0847464473       18.5522768561       10.8676198180
  H        10.4168167672       14.1343460039        7.9986537428
  H        24.4913243781        3.0397683915        3.9217426139
  H        25.6247689957        4.9069171959        2.7007986654
  H        23.2326121650        7.7582170249        4.8558831375
  H        22.1180250032        5.8819568197        6.0792129504
  H        23.8069130958        5.7963819349        1.2770949261
  H        36.3626758466       32.1892226207        3.9746004875
  H        35.2152842097       30.3749146839        2.7065085342
  H        37.4707871077       27.4350777117        4.8911889925
  H        38.5978556653       29.2628651111        6.1693948559
  H        36.9689852361       29.4511906812        1.2780597562
  H        25.7184205495        8.6288297457        4.6599359185
  H        36.4458220241       32.2427608034       12.1109992710
  H        35.3146441445       30.4357166761       13.3983647730
  H        37.4874897559       27.4833524384       11.1462748497
  H        38.5937418037       29.3030029166        9.8458333763
  H        36.9908501268       29.4699231034       14.8316582646
  H        46.1097624159       26.5878136782       11.3856262215
  H        44.6684829105       35.1163160821        7.8138954159
  H        24.4286238291        3.0452729803       12.0991255747
  H        25.5520746924        4.8867065708       13.3527755185
  H        23.1588120379        7.7706374283       11.2431126545
  H        22.0469423674        5.9173845072        9.9891695598
  H        23.7838622526        5.7951887601       14.8288915093
  H        44.9545283386       34.3910965183        9.6956741424
  H        44.9022291874       34.2070128011        6.4905856733
  H        40.6653150046       33.2084651323       10.8527578453
  H        23.1501850369        1.9583153775        8.0059427294
  H        25.9296822649       19.6527744936        3.7797035413
  H        23.7391576616       19.7537475556        2.6003474879
  H        22.3481197383       16.3912475113        4.8949597974
  H        24.5340031720       16.3161862247        6.0867784437
  H        23.7477508611       17.7297800827        1.2371833821
  H        35.1562602216       15.4435561395        3.9889988949
  H        37.2727052285       15.4097980407        2.6760780214
  H        38.6935787330       18.8102436603        4.8958007863
  H        36.5679436242       18.8302017492        6.2118238053
  H        37.2269840163       17.3888637675        1.2456992429
  H        20.3850511183       18.0984317681        4.6599840288
  H        35.1906665738       15.4730483631       12.0894880534
  H        37.3244121538       15.4134872919       13.3834316824
  H        38.7504151122       18.8164933013       11.1708075632
  H        36.6155207760       18.8532559563        9.8681365273
  H        37.2454363935       17.3945921783       14.7969066207
  H        35.0882629889       26.6881521693       11.3954460254
  H        28.5148638810       21.1065121713        7.9834809060
  H        25.8569081425       19.6514471370       12.2485220507
  H        23.6525327928       19.7474068672       13.4116041556
  H        22.3332308742       16.3062568239       11.1933291367
  H        24.5321841017       16.2358906955       10.0174193216
  H        23.7303685921       17.7090016340       14.7945006927
  H        28.9575655013       21.7212586485        9.8093906526
  H        29.0971619053       21.7762789171        6.5896869578
  H        32.1155528340       18.5263942488       10.9922171106
  H        27.3999970853       19.0836450360        8.0840583420
  H        14.8548497196       19.6745578166       12.1219261492
  H        17.0201959943       19.7575116239       13.3505408596
  H        18.3431777131       16.2501472494       11.2416390137
  H        16.1734955619       16.1835136138       10.0113578396
  H        16.9542538964       17.7792423571       14.8333906349
  H        46.0944491304       15.4437884637       12.0691437141
  H        43.9722149949       15.3920445194       13.3820629913
  H        42.5637676957       18.8329546194       11.2184034193
  H        44.6854645684       18.8583818612        9.8939743328
  H        44.0308617737       17.3285725769       14.8460137632
  H        20.3311259103       18.0167250831       11.4073516421
  H        46.0371857503       15.3803509120        4.0444011686
  H        43.9044117766       15.3193446647        2.7505257332
  H        42.5216950010       18.7912851370        4.8797160487
  H        44.6607077744       18.8382790496        6.1747782835
  H        44.0123770127       17.3037153722        1.2957286453
  H        46.1999811062       26.6828731900        4.6234417447
  H        52.7409058007       21.0626292050        8.1947829952
  H        14.8685881891       19.6952443889        3.9007524276
  H        17.0634639338       19.8109202084        2.7230876915
  H        18.3779239083       16.3059783750        4.8406631723
  H        16.1840732312       16.2144802057        6.0289017528
  H        16.9709506988       17.7993319861        1.2785659620
  H        52.3218037332       21.6726869873        6.2942825095
  H        52.0121924041       21.7008924916        9.4958650738
  H        49.0685994094       18.6074239862        5.2042072772
  H        13.2480576876       19.0173976795        7.9766402415
  H        29.9021904300       12.5153994439       12.3146587994
  H        28.8266125690       10.5906179805       13.4851617110
  H        25.2599987478       11.1636167333       11.1498919455
  H        26.3555200729       13.0745934157        9.9691072025
  H        27.0779214849       11.7203121849       14.8005566559
  H        30.9657747236       22.6899712336       12.1443252382
  H        31.9644108190       24.6040405600       13.3821139433
  H        35.5898231183       24.1783727614       11.1050702627
  H        34.5658961664       22.2807763322        9.8469338952
  H        33.6559363620       23.5671949442       14.7626868568
  H        25.6977565720        8.5995154591       11.4146628780
  H        30.9059979469       22.6349401463        3.8645604161
  H        31.9071539356       24.5292145672        2.5979537157
  H        35.5191637991       24.1577537887        4.9056046510
  H        34.4986073570       22.2736491594        6.1822541128
  H        33.6255459534       23.5532602209        1.2070075832
  H        40.5936762975       17.0850444198        4.6642878308
  H        32.5094259710       14.1460702091        8.2508246100
  H        29.8237589968       12.6171388325        3.8591405938
  H        28.7957739954       10.7126828886        2.6139418199
  H        25.1941906950       11.1568624594        4.9245478658
  H        26.2459161249       13.0416971686        6.1827266921
  H        27.0685388008       11.7403067538        1.2462723237
  H        33.2997759086       14.1885928547        6.4475311608
  H        33.4113349078       14.3848041517        9.6050934691
  H        32.0716592046       18.4841957619        5.1553863187
  H        30.1787905779       14.1499458027        8.0797426442
  H        16.1177148505        2.9632683975       12.1291836393
  H        14.9525521554        4.8204470221       13.3218373023
  H        17.3672910131        7.6857420711       11.2111135056
  H        18.5160140868        5.8181881605       10.0114786674
  H        16.7536674063        5.7397331248       14.7714123592
  H        44.8278550872       32.1404261945       11.9771000820
  H        45.9373984053       30.3417593657       13.3064858240
  H        43.6831487235       27.3781735332       11.1522288042
  H        42.6001288232       29.1899332683        9.8096404326
  H        44.2309494010       29.4369656420       14.7690316153
  H        14.8512243280        8.5461558065       11.3632181970
  H        44.8998182712       32.2342157048        3.9318202541
  H        46.0249357446       30.4133317902        2.6524129553
  H        43.7642496787       27.4841331758        4.8457373355
  H        42.6461957972       29.3177640666        6.1247576928
  H        44.2691240864       29.4707074516        1.2183010302
  H        35.0053328858       26.6279243500        4.6406333843
  H        36.6054687812       35.1337126085        8.1808478048
  H        16.1433612876        3.0132048298        3.9044503519
  H        14.9738870938        4.8566967451        2.6887608612
  H        17.3975682448        7.7472856504        4.7541226762
  H        18.5444613496        5.8933195344        5.9816957821
  H        16.7649766522        5.7557957807        1.2191837919
  H        36.2792440113       34.4819246888        6.2730208858
  H        36.3816533745       34.2087475545        9.4998816199
  H        40.5795898934       33.2021260538        5.1539348359
  H        17.4713463407        1.9468035263        7.9742189244
  H        32.1331025857       15.9881481808        3.6950002080
  H        31.2225458471       15.5713520570       12.4992355275
  H        28.4210079824       18.4114108180       14.3597273338
  H        29.4272766504       15.2523885049       14.4246241882
  H        32.3981979602       17.3667025594        1.2454353421
  H        18.8543211479        0.8690606934       12.3352332703
  H        40.5282282888       35.2288229183        3.9520128540
  H        42.3248788758       34.4198277385        3.5899206178
  H        22.0875723887        0.6928697854       12.3509949171
  H        11.5970491315       18.7130501924       12.3828050032
  H        52.2650346735       18.4308411808        3.6771174609
  H        49.2550273383       16.4768581155        3.5848904582
  H        10.1508815129       15.7979595109       12.2926545184
  H        50.8500536789       17.6922797541        3.9542837615
  H        10.0465285642       17.3941695341       12.0520818703
  H        20.2160692867        0.0023200432       12.0417777154
  H        39.1839878598       36.1246394280        3.6867777196
 Ni        30.3945632770       17.1052735743        2.6649583213
 Ni        30.9073173716       16.2230187722       -0.0028356016
 Ni        29.5447343120       17.9928908036        0.4907710358
 Ni        30.2659821818       17.3810901885       13.3281120138
  O        10.6502146413       14.3650548752        5.4860098319
  O        12.6134564913       14.6578793753        6.5840737465
  O        49.1481470789       16.8458732726        7.9897081444
  O        50.3505516393       20.9352592548        5.6479819893
  O        48.3486797829       20.5933134558        6.6659131001
  O        11.0527672451       17.0531259670        6.5010873288
  O        50.3213046636       20.8814808980       10.4068365942
  O        48.3468345178       20.5867700031        9.3272280932
  O        49.5441852091       18.2482791953       10.0681804750
  O        12.3601489983       18.6243392630        7.9996884002
  O        48.6933437519       14.1485698428        6.7513259007
  O         8.2100094091       14.2103456783        9.3224934800
  O        10.7356197342       14.5067651141       10.6642599722
  O        12.5720915574       14.5832378418        9.3283781729
  O        22.8445804370        2.0437217972        5.4872724470
  O        21.6047528800        3.5916730633        6.5905812789
  O        42.0578648813       34.1371649499        7.9790139350
  O        37.9814751207       33.1355828856        5.5715610063
  O        39.2165809186       31.5742680140        6.6648187750
  O        20.3083701174        1.0394481371        6.5021618241
  O        38.0235523442       33.1836016657       10.4164642417
  O        39.2168750940       31.5817254350        9.3288656404
  O        40.6521645450       33.7690521341       10.0600602560
  O        18.2559754982        1.3755462946        7.9967898089
  O        44.6221977570       35.1005679372        6.7587679256
  O        24.2053615044        0.0000241841        9.3207495000
  O        22.7531116734        2.0583132272       10.5842237108
  O        21.6245690631        3.5961357931        9.3431462353
  O        27.6340911403       18.6890917772        5.4116667608
  O        26.7399456284       17.0044284303        6.6598566986
  O        30.6523412576       19.4106518929        8.0807164783
  O        33.5839565715       16.2761961573        5.6668067937
  O        34.2687241045       18.1677973627        6.7345096766
  O        29.5664415164       17.0640229787        6.5835764734
  O        33.6163848583       16.3285418599       10.4086854051
  O        34.3022990135       18.2475969624        9.4054793257
  O        31.6445835678       18.3026892211       10.1705992087
  O        30.2910591700       15.1142314793        8.0883133281
  O        28.5537662637       21.0343593676        6.9083060802
  O        28.5184238395       20.9510621960        9.4107872003
  O        27.6026829022       18.6216790309       10.7513252406
  O        26.7325269887       16.9956266623        9.4180807601
  O        13.1510711145       18.6926975865       10.5882352981
  O        13.9237789670       16.9174853796        9.4078691044
  O        50.5967683723       19.3500404156        8.0206473750
  O        47.6841711884       16.3266377719       10.4171303511
  O        46.9519693204       18.1756995584        9.3247184846
  O        11.0711540450       17.0148031621        9.4893029575
  O        47.6764647229       16.3354581060        5.6533233500
  O        46.9277529008       18.2357928966        6.6647774704
  O        49.5696127174       18.3175898540        5.9825885898
  O        10.3192104127       15.1001843555        7.9970383802
  O        52.6707671150       21.0277409100        9.2418746059
  O        12.1468582962       20.8909555712        6.6732228087
  O        13.1103119996       18.6138898897        5.3247631891
  O        13.9619963876       16.9890852530        6.6614905225
  O        29.9879562929       14.4379125981       10.7305645775
  O        28.0848638835       14.6564550962        9.4968867937
  O        32.0752060965       16.8673454490        8.0799881334
  O        30.9484990530       20.8022089758       10.5775364987
  O        32.8611866848       20.5990874134        9.3473373095
  O        29.5693780897       17.0767734006        9.5677654396
  O        30.8696769168       20.7990958650        5.5728594904
  O        32.8610632062       20.5804157362        6.6652117424
  O        31.6130916411       18.2525310950        5.9812467450
  O        28.2874492281       18.6866251932        8.0812546293
  O        32.4922800310       14.2125742960        9.3292446404
  O        32.4062903226       14.2116726693        6.8285537050
  O        29.8969789439       14.4327251205        5.5010819692
  O        28.0018206158       14.6487036931        6.7388326714
  O        17.8890237791        1.9663798566       10.6627578582
  O        18.9560824108        3.5270851462        9.4080056340
  O        39.1684207821       34.1383471633        7.9973006006
  O        43.2801451198       33.0589326287       10.3317050178
  O        42.0342271092       31.5064860481        9.2416694357
  O        20.3176011404        1.0365378744        9.4803233073
  O        43.2760779821       33.1825938330        5.5748753450
  O        42.0051579141       31.5841081343        6.5829861799
  O        40.5789206728       33.7748952005        5.9359943162
  O        22.3673627799        1.3846467552        7.9981182275
  O        36.6728700510       35.0995922577        9.2334708766
  O        16.4457290261        0.0640129873        6.6682118469
  O        17.9365566847        2.0433342296        5.3263560681
  O        18.9189993767        3.5931275382        6.6659595841
  O        31.3217707700       16.2627414579        4.1609381929
  O        31.3002889739       16.4115547280       11.9973365764
  O        31.8998041595       16.5630439804        1.4983849059
  O        30.3316244031       15.6104304719       14.3430831263
  O        29.3678264947       18.4659965983       14.5865981192
  O        39.4568623695       35.2437849633        4.0019869297
  O        19.1422431516        0.0046040967       11.9904704247
  O        41.9695136130       35.1727937740        4.0872057385
  O        21.6914165101       -0.0690748978       11.8959245916
  O        51.3653382262       18.6141600997        4.0055257166
  O        10.7514627085       18.7471571681       11.9048392934
  O        50.0796507250       16.4128688306        4.0918690586
  O         9.5250243135       16.4828662580       11.9912149623
 Zr         9.2975090947       16.0524129050        6.1827022364
 Zr        49.8370407090       16.0062995449        9.7461621030
 Zr        22.0735488641        0.0305566678        6.1888567379
 Zr        42.4612719728       35.1540136321        9.8010013937
 Zr        29.6097356646       19.0922035171        6.3653575089
 Zr        29.5910200996       19.1486241088        9.8411676486
 Zr        11.0390552642       19.0509966237        9.8278891377
 Zr        11.0446862421       19.1540719302        6.2509864396
 Zr        31.3431440779       16.0706595813        9.9075045982
 Zr        31.3685549237       15.9734489938        6.2616203912
 Zr        18.6016049166       -0.0014690550        9.7637704204
 Zr        18.5069638661       -0.0076294287        6.2136136630
 Zr        12.3048065561       16.3238809290        7.9900412238
 Zr        48.6170199315       18.8331951405        8.0103840537
 Zr        20.3156964712        2.4741381938        7.9908388601
 Zr        40.6431011352       32.6871075476        7.9782746973
 Zr        28.3366370020       16.3188280230        8.0829372714
 Zr        32.6524077967       18.7954146231        8.0620531965
  H        29.0768216296       17.5094655024        1.8797736950
