     571
 i =      176, E =     -4761.5824231593
  C        11.8585454062       14.0535056743        5.7415864883
  C        12.4560277998       12.8904685533        5.0233838257
  C        11.7045621456       12.1719730137        4.0812186385
  C        12.2809330139       11.1097787123        3.3888377102
  C        13.6213078564       10.7395287481        3.6170314610
  C        14.3541883815       11.4425838109        4.5911040091
  C        13.7812968699       12.5075349055        5.2826395705
  C        14.2609485326        9.6489658291        2.8436022674
  C        14.2564242016        9.6569921346        1.4218985302
  C        13.7433033199       10.7591179288        0.6679584043
  C        49.1266691606       21.2332744287        5.8797040254
  C        48.5499732260       22.4011102695        5.1526313058
  C        49.3000879372       23.0685760571        4.1717694544
  C        48.7331649168       24.1076917172        3.4385592540
  C        47.4025600593       24.5092514706        3.6670455705
  C        46.6714948493       23.8602119532        4.6803800666
  C        47.2339427963       22.8153303182        5.4097581723
  C        46.7723805240       25.5869532715        2.8697344822
  C        46.7616374918       25.5574525685        1.4479679632
  C        47.2616262764       24.4423875400        0.7044691776
  C        14.8604806708        8.5707156040        0.7086324740
  C        14.8916428504        8.5969464547        3.5202389308
  C        49.1130717354       21.2035076128       10.1453537143
  C        48.5277772198       22.3647969274       10.8724483531
  C        49.2671413874       23.0257407570       11.8651386124
  C        48.6908047716       24.0602615476       12.5966064555
  C        47.3602829095       24.4568499335       12.3585910621
  C        46.6397197632       23.8116863249       11.3353318791
  C        47.2132589087       22.7757932261       10.6035285414
  C        46.7219235007       25.5318539259       13.1496252152
  C        46.7338607062       25.5282830263       14.5713233245
  C        47.2493750863       24.4291096593       15.3277071546
  C        40.6214381230       17.0918170130       15.3072307921
  C        40.6312359850       17.1023250723       12.4975514648
  C        11.8828298186       14.0864565130       10.2854125012
  C        12.4720758722       12.9105211516       10.9895363571
  C        11.7147507478       12.1777544580       11.9161443065
  C        12.2813204442       11.0952883611       12.5845684266
  C        13.6199373494       10.7210783181       12.3523193270
  C        14.3575850025       11.4360883996       11.3908341804
  C        13.7922111012       12.5172708205       10.7181266487
  C        14.2536514800        9.6244433457       13.1227851517
  C        14.2525575031        9.6445902239       14.5446277092
  C        13.7427447365       10.7535708776       15.2917018202
  C        22.5138585619        3.2438751456        5.7537871514
  C        23.2345081734        4.3466524503        5.0555611631
  C        24.2346547688        4.0608004518        4.1143367667
  C        24.8691205638        5.0960753956        3.4326711193
  C        24.5193255335        6.4398070046        3.6719529101
  C        23.5472009811        6.7172886142        4.6503736153
  C        22.9082163004        5.6836658887        5.3306871461
  C        25.1314097257        7.5424802494        2.8953151884
  C        25.1047635841        7.5340377938        1.4737133004
  C        24.4004213181        6.5356520975        0.7285190553
  C        38.3014714482       31.9299068894        5.8497438790
  C        37.5693075807       30.8413751299        5.1420664258
  C        36.6074107286       31.1463471608        4.1668080262
  C        35.9875032870       30.1268711022        3.4498256200
  C        36.3148988586       28.7773041979        3.6860417436
  C        37.2467245410       28.4798278027        4.6983025390
  C        37.8705601866       29.4979568299        5.4144534899
  C        35.7113353682       27.6864218569        2.8886075612
  C        35.7415566024       27.7022388384        1.4672006448
  C        36.4456819075       28.7058328593        0.7300124787
  C        25.7288761285        8.6029553048        0.7531258527
  C        25.7306470855        8.6166705127        3.5649808231
  C        38.3282486464       31.9615035824       10.1568477202
  C        37.6059917150       30.8890378871       10.8992116884
  C        36.6759710258       31.1988116156       11.9035605748
  C        36.0642223560       30.1813644867       12.6332974945
  C        36.3677886755       28.8280206775       12.3828573454
  C        37.2756233378       28.5282971879       11.3484792976
  C        37.8894205261       29.5422157541       10.6198069035
  C        35.7580637513       27.7296987031       13.1674086476
  C        35.7654169947       27.7243375498       14.5896784862
  C        36.4566546774       28.7167195021       15.3532384483
  C        46.1358836022       26.6209220197       15.2814693736
  C        46.0877477359       26.5800778768       12.4735707735
  C        22.4617067932        3.2554515463       10.2576880841
  C        23.1585866543        4.3626492874       10.9808373892
  C        24.1635744825        4.0732001480       11.9175758919
  C        24.7951962860        5.1007192984       12.6141063636
  C        24.4418991350        6.4475732573       12.3968324579
  C        23.4596070647        6.7303529077       11.4287572647
  C        22.8235921241        5.7030105530       10.7324100615
  C        25.0771519011        7.5431043616       13.1711499332
  C        25.0773370162        7.5336702189       14.5941359416
  C        24.3855152411        6.5363844171       15.3516620132
  C        26.6178491855       17.8622305693        5.7804812220
  C        25.3144462923       17.9013805036        5.0490938551
  C        25.0405094770       18.9094617918        4.1107062014
  C        23.8280120224       18.9228685871        3.4232768495
  C        22.8502696089       17.9342190447        3.6562525603
  C        23.1200297826       16.9482036802        4.6237565440
  C        24.3356907578       16.9274179741        5.3060274779
  C        21.5755495266       17.9184907729        2.8943341666
  C        21.5762670143       17.8990412360        1.4722684200
  C        22.7823017081       17.7781800918        0.7121373649
  C        34.4457488132       17.1962480196        5.9196446849
  C        35.7366424699       17.1464641853        5.1745380810
  C        35.9435930638       16.1744373539        4.1830002497
  C        37.1225197528       16.1628710583        3.4436350101
  C        38.1276784753       17.1213099863        3.6759658631
  C        37.9243181728       18.0740404234        4.6926250735
  C        36.7420178891       18.0919287245        5.4287632363
  C        39.3796438685       17.1286429560        2.8858818041
  C        39.3703225406       17.1284546604        1.4638438893
  C        38.1604422099       17.2408863642        0.7088642091
  C        20.3299919819       17.9166587480        0.7637811478
  C        20.3513729319       17.9201199844        3.5775061960
  C        34.4409753734       17.2368173180       10.1899632261
  C        35.7422656952       17.1337349229       10.9094098696
  C        35.9497860510       16.1517007832       11.8895454534
  C        37.1400770411       16.1211544656       12.6117375054
  C        38.1522722952       17.0712868910       12.3731826690
  C        37.9520115134       18.0251483664       11.3577182039
  C        36.7608635275       18.0612073349       10.6394169065
  C        39.4016415929       17.0882580243       13.1660496390
  C        39.3817394527       17.1074845983       14.5874759203
  C        38.1660752908       17.2289511687       15.3319728912
  C        35.1355122904       26.6446971909       15.2939295830
  C        35.1693530690       26.6578964192       12.4845967618
  C        26.5720404017       17.8264968138       10.3238921849
  C        25.2573583194       17.8708876526       11.0300454552
  C        24.9905975790       18.8765809594       11.9712406382
  C        23.7724757027       18.8999248598       12.6446679847
  C        22.7919801019       17.9177893453       12.3999419108
  C        23.0528204372       16.9370885900       11.4259161451
  C        24.2718186268       16.9114504078       10.7511779738
  C        21.5281981479       17.8974348864       13.1726379753
  C        21.5519152954       17.8860649194       14.5939973342
  C        22.7706195402       17.7712519141       15.3357423540
  C        14.0459824091       17.8285371306       10.2884663864
  C        15.3507589564       17.8842959930       11.0135566581
  C        15.6085191285       18.8863580686       11.9618820969
  C        16.8178529841       18.9052497586       12.6542493132
  C        17.8030926208       17.9249323311       12.4197679307
  C        17.5501883680       16.9471153456       11.4393086249
  C        16.3402283770       16.9235538516       10.7488734807
  C        19.0722154157       17.9055610631       13.1882755916
  C        19.0706620766       17.8992550221       14.6106217123
  C        17.8635311852       17.7988161618       15.3716159830
  C        46.8025272720       17.2159477766       10.1565405414
  C        45.5091724493       17.1455268299       10.8960258012
  C        45.3052505953       16.1639436197       11.8784079515
  C        44.1211207350       16.1366526114       12.6102987417
  C        43.1100723576       17.0907106386       12.3825783536
  C        43.3104528268       18.0505337838       11.3719029035
  C        44.4955402105       18.0818861613       10.6407955423
  C        41.8572886093       17.0960223978       13.1727795836
  C        41.8663709271       17.1026695923       14.5949138605
  C        43.0770470064       17.2042052222       15.3499724960
  C        20.3172401691       17.9092888892       15.3189038025
  C        20.2963110400       17.8873243425       12.5059241278
  C        46.7854298210       17.2329704665        5.8859548340
  C        45.4848291879       17.1312315985        5.1649736584
  C        45.2666465558       16.1340512023        4.2020461553
  C        44.0800852043       16.1094298294        3.4731566168
  C        43.0815849684       17.0792996207        3.6890064905
  C        43.2909976683       18.0474828462        4.6890028262
  C        44.4783563234       18.0781403875        5.4135104239
  C        41.8340345617       17.0999734734        2.8936968997
  C        41.8545329668       17.1038664220        1.4724078495
  C        43.0715057818       17.2015546127        0.7269645630
  C        46.1536296850       26.6373376011        0.7262229843
  C        46.1622538657       26.6559745966        3.5358718959
  C        14.0448060064       17.8300552504        5.7078240309
  C        15.3655148273       17.9001244300        5.0151299077
  C        15.6417227878       18.9144521713        4.0863131880
  C        16.8707564760       18.9479695497        3.4311017246
  C        17.8512067408       17.9662091102        3.6790322702
  C        17.5815943672       16.9801297553        4.6453347839
  C        16.3545977293       16.9461963982        5.3039821270
  C        19.1187865493       17.9388516211        2.9103868354
  C        19.0950053157       17.9151628034        1.4888387349
  C        17.8752848792       17.8060104601        0.7478783495
  C        28.8103578473       14.0925946340       10.3923465883
  C        28.1984051574       12.9182291610       11.0803188386
  C        28.9321284014       12.1608340732       12.0056542660
  C        28.3360406037       11.0844160071       12.6581260955
  C        26.9926512168       10.7394448564       12.4067468532
  C        26.2800108413       11.4767781600       11.4444034486
  C        26.8734785460       12.5545517682       10.7918559009
  C        26.3293427552        9.6554424269       13.1674615179
  C        26.3267009822        9.6773458877       14.5883669706
  C        26.8357462168       10.7881057385       15.3332776040
  C        32.1784904448       21.2373830670       10.1503542726
  C        32.7704001649       22.4036027358       10.8684722827
  C        32.0234367944       23.0784532434       11.8464864335
  C        32.5936114041       24.1185878727       12.5738432620
  C        33.9260679703       24.5123999765       12.3441490360
  C        34.6549870667       23.8566158602       11.3339783096
  C        34.0877160006       22.8108706420       10.6086243485
  C        34.5545478090       25.5880672438       13.1444102650
  C        34.5458566548       25.5594110419       14.5662968075
  C        34.0399156709       24.4430199243       15.3044689576
  C        25.7191581778        8.5989849393       15.3081429753
  C        25.6884393921        8.6073981309       12.4943741612
  C        32.1008261011       21.2249836485        5.8828603504
  C        32.6876948446       22.3788938779        5.1419390590
  C        31.9548472312       23.0305580197        4.1380646134
  C        32.5334795033       24.0617940947        3.4019984056
  C        33.8585087264       24.4704849545        3.6505626169
  C        34.5734924431       23.8321678458        4.6822980923
  C        33.9998963538       22.7959899177        5.4142191403
  C        34.4984965997       25.5511935250        2.8653975185
  C        34.5161041499       25.5412041373        1.4431770368
  C        34.0245557990       24.4348049856        0.6813624497
  C        40.6150821335       17.0977778028        0.7520937728
  C        40.6049393569       17.1309359880        3.5620303678
  C        28.7459270875       14.0685800232        5.8223615091
  C        28.1393120465       12.9195775253        5.0848558526
  C        28.8771349557       12.2387181755        4.1043404793
  C        28.3053576296       11.1775566869        3.4064077308
  C        26.9791995999       10.7728249112        3.6608964609
  C        26.2587938997       11.4432426163        4.6674639493
  C        26.8296211934       12.5033617219        5.3693730749
  C        26.3435735338        9.6790705099        2.8875337965
  C        26.3343492027        9.6903438412        1.4654011720
  C        26.8361191122       10.7960863223        0.7092578524
  C        18.1354760329        3.1808303222       10.3170734903
  C        17.4061107151        4.2781658475       11.0157279049
  C        16.3905305074        3.9997645751       11.9433581451
  C        15.7427834461        5.0397164831       12.6069150759
  C        16.0945173694        6.3834448201       12.3671018068
  C        17.0836928021        6.6530071806       11.4031436499
  C        17.7327983284        5.6156884930       10.7380497434
  C        15.4702184894        7.4911761745       13.1301406130
  C        15.4856694841        7.4906424142       14.5518569738
  C        16.1873143051        6.4970930126       15.3050338085
  C        42.9458249667       31.8594389125       10.0728814254
  C        43.6461867554       30.7717850805       10.8168393435
  C        44.5920361571       31.0930873885       11.8026132528
  C        45.1977426377       30.0875389354       12.5502660663
  C        44.8709748159       28.7345122208       12.3356899298
  C        43.9447686565       28.4201713632       11.3228358030
  C        43.3359505369       29.4253275269       10.5748052469
  C        45.4886930954       27.6552677206       13.1388617831
  C        45.4930438065       27.6809692500       14.5605531209
  C        44.8059479363       28.6890163285       15.3071629216
  C        14.8567099725        8.5631649266       15.2641923599
  C        14.8747318944        8.5628062638       12.4515210580
  C        42.9463740795       31.9614686488        5.8089633241
  C        43.6915215637       30.8853542113        5.0953955404
  C        44.6564733332       31.1912484538        4.1234421855
  C        45.2780205797       30.1716587552        3.4057463249
  C        44.9538539014       28.8213669916        3.6430043113
  C        44.0198747400       28.5236950470        4.6533113013
  C        43.3915897274       29.5404715729        5.3654645198
  C        45.5630494087       27.7240052857        2.8578035921
  C        45.5335480946       27.7174326573        1.4365031530
  C        44.8272168778       28.7076578811        0.6835547472
  C        35.1218797106       26.6343460359        0.7390484386
  C        35.1079591020       26.6103374991        3.5489101508
  C        18.1486861325        3.2469064040        5.7066838191
  C        17.4299959556        4.3438525571        4.9974352530
  C        16.4148785784        4.0525568205        4.0737933209
  C        15.7665658107        5.0831621847        3.3983350540
  C        16.1211276787        6.4283959216        3.6211502574
  C        17.1123897816        6.7118155372        4.5785117543
  C        17.7600636640        5.6829140410        5.2583169854
  C        15.4906823055        7.5241198500        2.8486750212
  C        15.4967139019        7.5076215234        1.4275335053
  C        16.1935319325        6.5059464845        0.6808486273
  H        10.6725722849       12.4664036140        3.9038600733
  H        11.6947520718       10.5516031740        2.6619758443
  H        15.3910016553       11.1674926250        4.7733315492
  H        14.3505068384       13.0703060914        6.0186151399
  H        13.3761728795       11.6312024365        1.2012488233
  H        50.3228304437       22.7486266201        3.9870971533
  H        49.3196673891       24.6230580489        2.6810673361
  H        45.6419184891       24.1608024481        4.8633840675
  H        46.6627662682       22.2899944282        6.1716636231
  H        47.6300151249       23.5759335389        1.2461304094
  H        14.8717416625        8.5880248154        4.6085411999
  H        50.2872535506       22.7030450355       12.0599206021
  H        49.2692334095       24.5758873046       13.3599639078
  H        45.6101903205       24.1086612443       11.1465213949
  H        46.6522030629       22.2534169930        9.8322820228
  H        47.6080135011       23.5519210573       14.7968315393
  H        40.6343975194       17.0655541000       11.4098149332
  H        48.6869257161       14.0949609385        7.8000050031
  H        10.6814222591       12.4671358415       12.0938906153
  H        11.6896190725       10.5252068525       13.2975923646
  H        15.3927917077       11.1577014841       11.2043921460
  H        14.3643249891       13.0861869262        9.9890683989
  H        13.3758014507       11.6221324948       14.7530622849
  H        47.9300993149       14.2182509453        9.7107837781
  H        47.7798570991       14.3731468363        6.4950848612
  H        49.0823068368       18.5519882076       10.8668878860
  H        10.4157007539       14.1343822700        7.9986964686
  H        24.4923018169        3.0207358887        3.9271643163
  H        25.6446637354        4.8735920494        2.7029548066
  H        23.2695065256        7.7517904491        4.8414575307
  H        22.1356779902        5.8889029321        6.0677787643
  H        23.8397999330        5.7790780715        1.2697468399
  H        36.3706407024       32.1897976387        3.9727900952
  H        35.2413736413       30.3666339051        2.6954566719
  H        37.5066561109       27.4404177175        4.8877888862
  H        38.6156256786       29.2761102794        6.1748034364
  H        37.0093410390       29.4567055664        1.2759987380
  H        25.7646143220        8.6005302872        4.6528439491
  H        36.4532083649       32.2432601112       12.1097558183
  H        35.3375681638       30.4277568423       13.4043278788
  H        37.5223090948       27.4877694388       11.1479704846
  H        38.6124498063       29.3148776368        9.8402382345
  H        37.0298122425       29.4755130842       14.8283312066
  H        46.1088578845       26.5873270612       11.3855287612
  H        44.6681325490       35.1160157815        7.8139274682
  H        24.4405829748        3.0342043265       12.0811312627
  H        25.5783683024        4.8688923360       13.3327698631
  H        23.1749281646        7.7655907654       11.2519741736
  H        22.0496738289        5.9187334283        9.9993554035
  H        23.8128551730        5.7809871252       14.8214226073
  H        44.9532232065       34.3898332786        9.6948131798
  H        44.9011239922       34.2064808425        6.4906831632
  H        40.6652820743       33.2086017248       10.8529243228
  H        23.1508210242        1.9572973754        8.0054207694
  H        25.7845326215       19.6847218271        3.9410767712
  H        23.6203579067       19.7108429261        2.7023237263
  H        22.3771720451       16.1756599974        4.8119599552
  H        24.5545363915       16.1528040940        6.0373651840
  H        23.7224979270       17.6601513907        1.2428266500
  H        35.1658079204       15.4379577141        3.9968811823
  H        37.2791644146       15.4029936564        2.6813237568
  H        38.6919559793       18.8231289118        4.8755418056
  H        36.5682254124       18.8428938289        6.1959855426
  H        37.2208476810       17.3681512665        1.2392025130
  H        20.3582658262       17.9589993325        4.6654152725
  H        35.1612327814       15.4287811352       12.0843890681
  H        37.2977076996       15.3580928256       13.3707743189
  H        38.7268053282       18.7649660919       11.1676601192
  H        36.5859188995       18.8172722430        9.8779329437
  H        37.2309658826       17.3479749368       14.7921775384
  H        35.1426205804       26.6830816995       11.3968438286
  H        28.5095608803       21.0821791482        7.9687396409
  H        25.7500211050       19.6326209222       12.1571536311
  H        23.5649604745       19.6840906516       13.3695916064
  H        22.3038150939       16.1722179108       11.2311695012
  H        24.4895790597       16.1426985657       10.0136059906
  H        23.7018546020       17.6481102008       14.7908200434
  H        29.0096580928       21.7181935318        9.7587512375
  H        29.1596193708       21.7425266031        6.6167146295
  H        32.0875536967       18.5296710855       10.9973896383
  H        27.4106113708       19.0813941277        8.0877586772
  H        14.8507067844       19.6457916615       12.1411488678
  H        17.0143057954       19.6883432423       13.3834336090
  H        18.3006263030       16.1823684925       11.2496783645
  H        16.1327284969       16.1554354938       10.0076651264
  H        16.9211965727       17.6838251545       14.8438738994
  H        46.0922359461       15.4363591717       12.0623333355
  H        43.9650194516       15.3684863814       13.3645366090
  H        42.5380194141       18.7950840586       11.1906810508
  H        44.6658071593       18.8380623855        9.8779570820
  H        44.0172698071       17.3161681605       14.8176988371
  H        20.2901601839       17.9192934308       11.4178611286
  H        46.0421857897       15.3918520058        4.0270344414
  H        43.9136100017       15.3344578469        2.7281173084
  H        42.5257083580       18.8011500976        4.8625045046
  H        44.6601012825       18.8441741300        6.1633267482
  H        44.0076158428       17.3103832469        1.2670057591
  H        46.1987631967       26.6823911923        4.6233309542
  H        52.7410071009       21.0625942569        8.1946776454
  H        14.8834805882       19.6705260417        3.8946143126
  H        17.0839672013       19.7377497194        2.7139407183
  H        18.3295356453       16.2152897198        4.8441380007
  H        16.1311090182       16.1722635430        6.0342372478
  H        16.9418683534       17.6964560384        1.2917921469
  H        52.3220526073       21.6730905034        6.2943667392
  H        52.0131163121       21.7020010984        9.4957273729
  H        49.0670979272       18.6080017690        5.2042336870
  H        13.2471435230       19.0165672502        7.9769647162
  H        29.9699766968       12.4269266068       12.1941329582
  H        28.9062152122       10.4959253966       13.3737775399
  H        25.2419799681       11.2198326522       11.2433505240
  H        26.3213655641       13.1445409897       10.0643615910
  H        27.1982112003       11.6567086800       14.7918629428
  H        30.9998689229       22.7625634751       12.0327407837
  H        32.0096851565       24.6396355575       13.3293170069
  H        35.6863741476       24.1510842840       11.1510958983
  H        34.6568868747       22.2792386834        9.8495829442
  H        33.6885068960       23.5708679032       14.7604030855
  H        25.7107079791        8.5921054444       11.4061183571
  H        30.9365983482       22.7050397039        3.9384051555
  H        31.9590643875       24.5668365099        2.6285388413
  H        35.5994288882       24.1360104279        4.8796410988
  H        34.5582700034       22.2806041952        6.1921520153
  H        33.6612509892       23.5563870140        1.2073937776
  H        40.6007569687       17.1016936467        4.6499675522
  H        32.5111107414       14.1439537401        8.2545100391
  H        29.8991079811       12.5568255128        3.9095984889
  H        28.8863931686       10.6433433349        2.6577555157
  H        25.2326920412       11.1438678745        4.8710747982
  H        26.2703853325       13.0348812374        6.1357694095
  H        27.1975673534       11.6712497189        1.2412314824
  H        33.3012801397       14.1958068732        6.4498080567
  H        33.4076547649       14.4095495594        9.5993580366
  H        32.1252540050       18.5333306528        5.1826646204
  H        30.2187921823       14.1875966111        8.0883013321
  H        16.1186434657        2.9632287752       12.1298654470
  H        14.9534330632        4.8202542661       13.3226633253
  H        17.3659000826        7.6859111689       11.2098643564
  H        18.5146497552        5.8182991663       10.0099880546
  H        16.7537911319        5.7397022319       14.7715182884
  H        44.8285236771       32.1401529766       11.9766006167
  H        45.9377971924       30.3412431101       13.3060404510
  H        43.6816306820       27.3781534075       11.1530829175
  H        42.5989697982       29.1899738872        9.8104943046
  H        44.2304654225       29.4366806928       14.7688487516
  H        14.8507311298        8.5458515345       11.3633090761
  H        44.9002882420       32.2339151974        3.9322721804
  H        46.0251837304       30.4128463273        2.6527531259
  H        43.7624243346       27.4840074306        4.8444579825
  H        42.6446800263       29.3176441470        6.1234996086
  H        44.2685680826       29.4704373555        1.2181456587
  H        35.0654971499       26.6228199937        4.6363773405
  H        36.6050711209       35.1339843142        8.1807087115
  H        16.1438913954        3.0129557190        3.9040342650
  H        14.9743069899        4.8562547456        2.6881928722
  H        17.3957649315        7.7473027899        4.7554890736
  H        18.5428380965        5.8933208258        5.9832066917
  H        16.7648987717        5.7556715438        1.2193145785
  H        36.2786849220       34.4823125820        6.2734156919
  H        36.3809090587       34.2091379129        9.4998527072
  H        40.5794276087       33.2019911681        5.1539231674
  H        17.4708426593        1.9469908068        7.9741839383
  H        28.9704932108       19.1867801532       12.5206237564
  H        28.8258430005       19.0074501733        3.8124256391
  H        32.2647635529       16.2335326389        3.7098322844
  H        31.5838073119       15.7483152011       12.6249152408
  H        28.2583849392       17.6532682849       14.6912934277
  H        29.7411105569       15.1071260915       14.1359265459
  H        32.6281223206       17.1637690260        0.5508983897
  H        28.2957603160       17.5995763150        1.6285307946
  H        31.3708195091       19.3996067070       14.1779436948
  H        18.8538693266        0.8691189744       12.3353978157
  H        40.5278390259       35.2291335890        3.9521499816
  H        42.3232023731       34.4181302156        3.5909641415
  H        22.0879162405        0.6919924209       12.3513993475
  H        11.5967718745       18.7131126704       12.3825099274
  H        52.2647292969       18.4310593921        3.6773245996
  H        49.2551767564       16.4771472910        3.5846466055
  H        10.1502458321       15.7981932324       12.2927468262
  H        50.8498272340       17.6923238062        3.9543817548
  H        10.0459058833       17.3945289178       12.0520444411
  H        20.2151664340        0.0022758250       12.0419627778
  H        39.1834951610       36.1242737942        3.6862191117
 Ni        30.2685084509       17.2818737206        3.0777424544
 Ni        29.8861030906       16.2774087193        0.3287820703
 Ni        30.1403971425       18.5727637768        0.0023388151
 Ni        30.0568840391       17.3520816580       13.2427345041
  O        10.6498658647       14.3651468092        5.4858074155
  O        12.6131451444       14.6575145249        6.5838855163
  O        49.1478609698       16.8460484148        7.9898049145
  O        50.3502486944       20.9358359830        5.6481814197
  O        48.3485650883       20.5932989212        6.6659926112
  O        11.0513616705       17.0540279521        6.5005457929
  O        50.3210054301       20.8816575758       10.4067812871
  O        48.3467527754       20.5867050037        9.3271138044
  O        49.5435644084       18.2484310831       10.0683152704
  O        12.3588244934       18.6245712483        7.9997034382
  O        48.6931959299       14.1486377371        6.7512782311
  O         8.2098715400       14.2103337801        9.3225460523
  O        10.7353629198       14.5067347905       10.6643601257
  O        12.5718109836       14.5828295194        9.3284778533
  O        22.8446509076        2.0424436180        5.4873034287
  O        21.6064909385        3.5928360716        6.5888188005
  O        42.0580531936       34.1371832998        7.9789756719
  O        37.9817322533       33.1386300391        5.5727910264
  O        39.2179547249       31.5763385172        6.6664847923
  O        20.3084095601        1.0396222626        6.5020970153
  O        38.0246380508       33.1857543187       10.4151374604
  O        39.2188379359       31.5835188769        9.3267977382
  O        40.6522609945       33.7692739837       10.0602737442
  O        18.2556657634        1.3760171691        7.9968305132
  O        44.6222423909       35.1004742571        6.7587231860
  O        24.2053919044       -0.0000122764        9.3208056782
  O        22.7531251485        2.0573209476       10.5837351243
  O        21.6249266810        3.5965913608        9.3435301686
  O        27.4955806902       18.7552779521        5.4945439358
  O        26.7592847429       16.9407475948        6.6533360378
  O        30.6674190265       19.4030046922        8.0741529197
  O        33.5895603580       16.2765910612        5.6665332420
  O        34.2761434411       18.1668866689        6.7361521485
  O        29.5746777406       17.0608441142        6.5814156109
  O        33.5526212284       16.3391173393       10.4199394729
  O        34.3005698981       18.2380220672        9.4093826417
  O        31.6494132278       18.3162615764       10.1564270798
  O        30.3202570854       15.1535336186        8.0926269712
  O        28.5541581723       21.0335429339        6.9007259341
  O        28.5151774940       20.9546052608        9.4146745823
  O        27.4578731437       18.6800658080       10.6578675572
  O        26.6951166174       16.9291137751        9.4121883187
  O        13.1488762656       18.6929227105       10.5875374601
  O        13.9192136377       16.9160733626        9.4047414305
  O        50.5957485212       19.3502217469        8.0204854610
  O        47.6831827695       16.3269361621       10.4171109012
  O        46.9507721014       18.1755664025        9.3252782340
  O        11.0694906191       17.0157191835        9.4897528850
  O        47.6756659677       16.3358786478        5.6527562171
  O        46.9265958499       18.2358080357        6.6640890608
  O        49.5683823993       18.3177160555        5.9822882763
  O        10.3185323383       15.1002519394        7.9970979302
  O        52.6707116720       21.0278736551        9.2418334562
  O        12.1468211961       20.8911274500        6.6731770627
  O        13.1087119821       18.6135108930        5.3253717137
  O        13.9571588009       16.9867827496        6.6655340335
  O        29.9942577907       14.4432180263       10.7323016009
  O        28.0894552029       14.6537743918        9.4960120587
  O        32.1347830524       16.8564415042        8.0856105252
  O        30.9623578037       20.9457759060       10.4140933107
  O        32.9444728906       20.6026360260        9.3407088244
  O        29.5671670026       17.0749933002        9.5758831834
  O        30.8708282249       20.9377619785        5.6634486474
  O        32.8775639614       20.5853893125        6.6680897845
  O        31.6785999905       18.2585684441        5.9997783208
  O        28.2933581567       18.6767752239        8.0776949034
  O        32.4910870893       14.2139585644        9.3313398142
  O        32.4067861571       14.2110608004        6.8291156780
  O        29.9157455555       14.4399691118        5.4939866444
  O        28.0353567682       14.5920051722        6.7552082524
  O        17.8892041784        1.9666546072       10.6628338014
  O        18.9563114869        3.5271714401        9.4079561711
  O        39.1686603703       34.1387753923        7.9972328215
  O        43.2802491645       33.0589167567       10.3316829523
  O        42.0345317491       31.5064226511        9.2416031117
  O        20.3176699696        1.0367411174        9.4801653373
  O        43.2760934425       33.1825160686        5.5748988749
  O        42.0052677496       31.5840789341        6.5830095153
  O        40.5790070106       33.7749308753        5.9358673108
  O        22.3672780781        1.3846800062        7.9979498626
  O        36.6727525203       35.0997714575        9.2333466671
  O        16.4455165835        0.0643405401        6.6683406033
  O        17.9364556240        2.0434611896        5.3263942679
  O        18.9191927411        3.5931570307        6.6659630974
  O        29.7406129979       18.8316623759        4.1008227613
  O        29.7596572311       18.8289437352       12.0676028602
  O        31.3963799897       16.2639260231        4.1527961186
  O        31.2647275831       16.4854951791       12.0733859954
  O        32.7089529874       16.3471657237        1.0828167724
  O        29.2642613987       17.5897637653        1.4980121396
  O        30.2818879623       15.8320831607       14.4992419583
  O        31.5698359582       19.0659342038       15.0739007236
  O        28.9255057777       18.3102562202       14.4112330090
  O        39.4567297123       35.2437727664        4.0019798735
  O        19.1417991238        0.0047453664       11.9905187525
  O        41.9696130581       35.1726764056        4.0871599782
  O        21.6913596983       -0.0694115178       11.8958811426
  O        51.3649799479       18.6142764094        4.0054887603
  O        10.7510200299       18.7472704203       11.9049223157
  O        50.0797371687       16.4128455063        4.0917395544
  O         9.5244121964       16.4830724202       11.9912574616
 Zr         9.2960167765       16.0528150343        6.1823501219
 Zr        49.8357145202       16.0068164839        9.7465808374
 Zr        22.0729639400        0.0293040677        6.1890861885
 Zr        42.4606563845       35.1529337462        9.8007484200
 Zr        29.6132076290       19.0975802675        6.2987161828
 Zr        29.5816421022       19.1698929543        9.8768635135
 Zr        11.0371708236       19.0522562631        9.8276134251
 Zr        11.0431019023       19.1549957636        6.2513553742
 Zr        31.3392020924       16.1076448250        9.8812173187
 Zr        31.3976124707       16.0043239124        6.3021709559
 Zr        18.6009274630       -0.0020090760        9.7634833937
 Zr        18.5062802860       -0.0081041415        6.2137346578
 Zr        12.3009371465       16.3235057596        7.9902606221
 Zr        48.6152259743       18.8330153877        8.0104245938
 Zr        20.3153337828        2.4730249682        7.9905473296
 Zr        40.6428233894       32.6863906663        7.9783128900
 Zr        28.3436638998       16.3361201836        8.0776792473
 Zr        32.6332942356       18.8428674279        8.0544237394
  H        32.3806825256       15.6605562885        0.4752444744
