     563
 i =      160, E =     -4694.9739182812
  C        11.8586416005       14.0534054970        5.7415473363
  C        12.4560101536       12.8904479406        5.0233126152
  C        11.7043795770       12.1716594662        4.0814719943
  C        12.2807242068       11.1094151351        3.3891712289
  C        13.6212268803       10.7393843213        3.6170545132
  C        14.3543204754       11.4428264309        4.5906868312
  C        13.7814677270       12.5078246459        5.2821863587
  C        14.2606761003        9.6486580881        2.8436592067
  C        14.2558851899        9.6565425639        1.4219540681
  C        13.7428876050       10.7587436219        0.6680494090
  C        49.1265641166       21.2333704141        5.8797706985
  C        48.5496966072       22.4012400087        5.1527853441
  C        49.2996491023       23.0683552098        4.1715698175
  C        48.7327100593       24.1074244867        3.4382989945
  C        47.4022491089       24.5092662086        3.6670698344
  C        46.6714306652       23.8606688584        4.6808789458
  C        47.2338697600       22.8158111530        5.4103034624
  C        46.7719885946       25.5868768333        2.8697163107
  C        46.7609937478       25.5572111667        1.4479538348
  C        47.2610561628       24.4421832173        0.7044462784
  C        14.8597328699        8.5701504023        0.7086853462
  C        14.8914709779        8.5967055279        3.5203057849
  C        49.1129414106       21.2034206362       10.1452664206
  C        48.5275626376       22.3648311046       10.8722441310
  C        49.2666651720       23.0252826080       11.8654446830
  C        48.6903574967       24.0598214522       12.5969298505
  C        47.3600524461       24.4568590303       12.3584915178
  C        46.6398343596       23.8123110621       11.3345824191
  C        47.2133686382       22.7764340037       10.6027471617
  C        46.7215513748       25.5317414027       13.1495693964
  C        46.7332529221       25.5280368923       14.5712761504
  C        47.2488031663       24.4288925860       15.3276827084
  C        40.6068198948       17.0770065776       15.3318036831
  C        40.6307168592       17.1297167692       12.5208413797
  C        11.8828731250       14.0863957008       10.2855583190
  C        12.4720377707       12.9105854859       10.9897298414
  C        11.7146142810       12.1775722055       11.9160957260
  C        12.2811729768       11.0950905993       12.5844728624
  C        13.6199016082       10.7210827805       12.3524331010
  C        14.3577399809       11.4364235162       11.3913418039
  C        13.7923523209       12.5176171169       10.7186630712
  C        14.2534812432        9.6243213243       13.1228532866
  C        14.2520759571        9.6442267265       14.5446995039
  C        13.7423430824       10.7532222498       15.2917958209
  C        22.5208743573        3.2480922457        5.7557859653
  C        23.2533623525        4.3524844508        5.0669909438
  C        24.2642726413        4.0679864902        4.1360864824
  C        24.9086969992        5.1030607666        3.4617961314
  C        24.5604849804        6.4489359498        3.6948736214
  C        23.5790351430        6.7251351017        4.6649712817
  C        22.9303085344        5.6915879268        5.3386509963
  C        25.1757739057        7.5502807809        2.9130368250
  C        25.1393182379        7.5365551194        1.4905239666
  C        24.4317237990        6.5343661389        0.7530632114
  C        38.3004635185       31.9246948171        5.8478115424
  C        37.5674581682       30.8318296382        5.1405490918
  C        36.6015343582       31.1313242967        4.1669764516
  C        35.9796357466       30.1091594963        3.4535523955
  C        36.3069826347       28.7586987454        3.6887089791
  C        37.2432936668       28.4667352626        4.6990725743
  C        37.8689497824       29.4877016318        5.4119241883
  C        35.7018770213       27.6656121642        2.8895824379
  C        35.7333468601       27.6838874595        1.4670203709
  C        36.4380167446       28.6890454243        0.7321472139
  C        25.7562633557        8.6035205094        0.7599013528
  C        25.7834040930        8.6277313702        3.5723822785
  C        38.3283861643       31.9611560210       10.1577675778
  C        37.6064796974       30.8876246493       10.9012191166
  C        36.6761347729       31.1960272305       11.9057877229
  C        36.0636803674       30.1778920007       12.6346612058
  C        36.3661810708       28.8243918808       12.3832675317
  C        37.2753093393       28.5261040730       11.3494588046
  C        37.8899305620       29.5407087476       10.6219378221
  C        35.7533777478       27.7245055577       13.1648079523
  C        35.7590028105       27.7146837434       14.5873983498
  C        36.4501530218       28.7038881710       15.3552710621
  C        46.1351282101       26.6206042583       15.2814241928
  C        46.0875688568       26.5801050133       12.4735369625
  C        22.4607967174        3.2547158307       10.2601896644
  C        23.1558640907        4.3583954758       10.9892521475
  C        24.1543991914        4.0628614677       11.9311796491
  C        24.7872542575        5.0859427397       12.6328565950
  C        24.4422029232        6.4347455885       12.4150385670
  C        23.4647357962        6.7233974231       11.4435242209
  C        22.8272138176        5.7005245895       10.7421889975
  C        25.0844792620        7.5282405443       13.1859953798
  C        25.0928349561        7.5241968880       14.6092536297
  C        24.4076535285        6.5296100509       15.3762226671
  C        26.5697975324       17.7847188644        5.7521939942
  C        25.2651320117       17.8564221682        5.0385649105
  C        25.0267560650       18.8486035121        4.0749933391
  C        23.8134222002       18.8849481276        3.3931309961
  C        22.8092373913       17.9301843180        3.6502085308
  C        23.0432285390       16.9638696815        4.6465392371
  C        24.2559178452       16.9245293639        5.3301032655
  C        21.5432799807       17.9238966331        2.8803229117
  C        21.5528541821       17.9084783883        1.4584422176
  C        22.7620241823       17.7750241752        0.7055092651
  C        34.3725223614       17.1459053024        5.9072862243
  C        35.6640992644       17.0804221569        5.1635103261
  C        35.8636277803       16.1275513260        4.1515760157
  C        37.0535135119       16.1084448953        3.4264117547
  C        38.0787271861       17.0399818569        3.6885646781
  C        37.8799572896       17.9712209051        4.7270790124
  C        36.6894847812       17.9964296959        5.4501002477
  C        39.3398942968       17.0523624180        2.9071491343
  C        39.3419459704       17.0760875772        1.4841571663
  C        38.1382484481       17.2043242516        0.7222046528
  C        20.3104307881       17.9396311037        0.7445708922
  C        20.3164906794       17.9259518084        3.5569234926
  C        34.3969511992       17.2500304449       10.2603386645
  C        35.7100104573       17.1557700130       10.9643118509
  C        35.9411175378       16.1622435755       11.9282464548
  C        37.1432119019       16.1293435921       12.6303331236
  C        38.1446993227       17.0918087706       12.3936352134
  C        37.9214167907       18.0574288829       11.3940018092
  C        36.7198157366       18.0919392838       10.6905600500
  C        39.3976155132       17.1063354419       13.1833602165
  C        39.3716350528       17.1044798364       14.6052921626
  C        38.1525087733       17.2162908839       15.3455659958
  C        35.1267832208       26.6338266122       15.2877976164
  C        35.1632041957       26.6554743463       12.4779320853
  C        26.5717180751       17.8315493346       10.3249937045
  C        25.2611393562       17.8759109551       11.0344549823
  C        25.0050286835       18.8747155276       11.9860986745
  C        23.7857793584       18.9044209507       12.6566781375
  C        22.7950548892       17.9365150550       12.3971847484
  C        23.0471750564       16.9618585283       11.4151011820
  C        24.2672276285       16.9288505089       10.7438516498
  C        21.5279269155       17.9233769911       13.1620089952
  C        21.5439294225       17.9070544331       14.5828497005
  C        22.7571717761       17.7743171054       15.3295053482
  C        14.0464172384       17.8331647666       10.2829887360
  C        15.3541486421       17.9006235304       10.9972443542
  C        15.6147904961       18.9176899773       11.9284650971
  C        16.8264456723       18.9465512812       12.6151909977
  C        17.8084560923       17.9608024375       12.3920750073
  C        17.5540645342       16.9697604312       11.4258046459
  C        16.3422136855       16.9367550093       10.7399871411
  C        19.0738712816       17.9440355257       13.1640376889
  C        19.0632545695       17.9381524816       14.5857296501
  C        17.8506889891       17.8451260597       15.3387617206
  C        46.8011365491       17.2199358744       10.1622150385
  C        45.5101286633       17.1577404385       10.9127608759
  C        45.3061633549       16.1802035670       11.8996467612
  C        44.1245232196       16.1568302589       12.6374733063
  C        43.1122073667       17.1111752200       12.4132662897
  C        43.3145646545       18.0700248986       11.4012224103
  C        44.4970372958       18.0970029172       10.6640675945
  C        41.8552964217       17.1129007357       13.2015416282
  C        41.8556677750       17.0996054617       14.6250103648
  C        43.0611562306       17.1913255873       15.3896550077
  C        20.3055407881       17.9382784917       15.3005169044
  C        20.3004286686       17.9206536454       12.4879070234
  C        46.7789864603       17.2284536203        5.8900807181
  C        45.4689315678       17.1117520600        5.1816802556
  C        45.2488510894       16.1067840019        4.2267698006
  C        44.0555100664       16.0663407541        3.5082039185
  C        43.0481492427       17.0271395170        3.7256629148
  C        43.2583296376       18.0011934478        4.7202196345
  C        44.4533756405       18.0482472928        5.4336214901
  C        41.7987254534       17.0390584445        2.9274871301
  C        41.8268174316       17.0603530482        1.5053111073
  C        43.0472510557       17.1709994809        0.7665677038
  C        46.1528955458       26.6370321468        0.7261844273
  C        46.1620405739       26.6560221056        3.5358204264
  C        14.0395006812       17.8284029410        5.7056464858
  C        15.3523129776       17.8974912600        5.0040311389
  C        15.6213787609       18.9202363017        4.0825185013
  C        16.8445472029       18.9576621482        3.4182335266
  C        17.8230388710       17.9711152376        3.6510721640
  C        17.5594546216       16.9741384616        4.6075019310
  C        16.3386902239       16.9365357774        5.2758747513
  C        19.0890567846       17.9518807062        2.8835126361
  C        19.0714469871       17.9413294650        1.4624006736
  C        17.8548011534       17.8462534306        0.7151056809
  C        28.7999900705       14.0838338615       10.3955639488
  C        28.2008217251       12.8973924707       11.0675612593
  C        28.9295628187       12.1631046548       12.0150070343
  C        28.3385033340       11.0832548523       12.6653122135
  C        27.0044595884       10.7159159993       12.3955572464
  C        26.2996193533       11.4284392053       11.4084514401
  C        26.8886670540       12.5072641255       10.7542385657
  C        26.3404014460        9.6387973830       13.1650329041
  C        26.3377154051        9.6705876316       14.5862477028
  C        26.8380609421       10.7908361694       15.3221674595
  C        32.1611598078       21.2778228730       10.0673968683
  C        32.7582568283       22.4274195879       10.8090162974
  C        32.0052221785       23.1019355433       11.7831804981
  C        32.5775633848       24.1271491560       12.5316346256
  C        33.9167719225       24.5117000110       12.3241595201
  C        34.6531643995       23.8539532983       11.3202413527
  C        34.0858384128       22.8196236732       10.5779351270
  C        34.5446745790       25.5841889680       13.1327690173
  C        34.5345712432       25.5527470408       14.5548090822
  C        34.0258569548       24.4355339407       15.2888775458
  C        25.7371695156        8.5936789005       15.3146393891
  C        25.6964324732        8.5868965628       12.5010602957
  C        32.0815725165       21.1270715036        5.7702037890
  C        32.6669162263       22.3050757865        5.0651857931
  C        31.9445238270       22.9654044516        4.0586235198
  C        32.5220645117       24.0198037916        3.3547197207
  C        33.8386448632       24.4413181851        3.6307342053
  C        34.5398464860       23.7967129377        4.6686016855
  C        33.9656266302       22.7410781200        5.3732427178
  C        34.4842331583       25.5293140521        2.8571775728
  C        34.5055848590       25.5236445891        1.4338421750
  C        34.0133033042       24.4211934843        0.6657970135
  C        40.5913392170       17.0596619683        0.7778622146
  C        40.5642561291       17.0513095672        3.5887007133
  C        28.7598378872       14.1404544512        5.7605291536
  C        28.1750944565       12.9882778366        5.0138505473
  C        28.9085714821       12.3052214913        4.0314826967
  C        28.3435845473       11.2220427015        3.3597683541
  C        27.0285065348       10.7956337688        3.6397661082
  C        26.3134623438       11.4697647055        4.6478753138
  C        26.8764103387       12.5492720315        5.3235683674
  C        26.3904585220        9.6888124085        2.8843972915
  C        26.3640421456        9.6961592426        1.4621182913
  C        26.8469124086       10.8048131845        0.6977470673
  C        18.1356746289        3.1810301712       10.3169807910
  C        17.4063016881        4.2782724159       11.0156055029
  C        16.3901559775        3.9998098078       11.9426294872
  C        15.7423268792        5.0397037628       12.6061732202
  C        16.0945533099        6.3834327530       12.3670352067
  C        17.0844222297        6.6530769030       11.4038044238
  C        17.7336228367        5.6158176724       10.7386876453
  C        15.4700051552        7.4910209757       13.1301312472
  C        15.4850200401        7.4901977881       14.5518620766
  C        16.1864244618        6.4964801606       15.3050333882
  C        42.9456631959       31.8595321609       10.0727486027
  C        43.6459777532       30.7717609830       10.8167640235
  C        44.5915702208       31.0930627658       11.8027634093
  C        45.1972336036       30.0874995733       12.5504557602
  C        44.8706802015       28.7344731197       12.3356366597
  C        43.9448019457       28.4201500008       11.3224791587
  C        43.3360212718       29.4253134939       10.5744296091
  C        45.4882494047       27.6551526540       13.1388175336
  C        45.4923534636       27.6807018259       14.5605140526
  C        44.8052359260       28.6887376221       15.3071287603
  C        14.8560012349        8.5626598486       15.2642404123
  C        14.8748160131        8.5628463446       12.4515553393
  C        42.9463399316       31.9616874234        5.8089693556
  C        43.6915189652       30.8854511649        5.0954053370
  C        44.6563034159       31.1913039508        4.1232983782
  C        45.2777506382       30.1716796710        3.4055337789
  C        44.9536841185       28.8214142770        3.6429838834
  C        44.0199907563       28.5237953513        4.6535646364
  C        43.3918037212       29.5405971192        5.3657680393
  C        45.5626797447       27.7239601585        2.8577537681
  C        45.5328932403       27.7171804589        1.4364608939
  C        44.8265338893       28.7073921606        0.6835218828
  C        35.1130708100       26.6186774784        0.7338835138
  C        35.0947694549       26.5869609501        3.5449166489
  C        18.1487514577        3.2468013366        5.7066234867
  C        17.4299329290        4.3436138349        4.9974668855
  C        16.4145191128        4.0522411259        4.0741391708
  C        15.7660877241        5.0827898681        3.3987269239
  C        16.1208074973        6.4280544528        3.6212131863
  C        17.1123819435        6.7115504968        4.5782356237
  C        17.7601863328        5.6827131456        5.2580225905
  C        15.4901958495        7.5237010716        2.8487290389
  C        15.4959337141        7.5070246761        1.4275765579
  C        16.1925864834        6.5052635280        0.6808543338
  H        10.6723207921       12.4659132660        3.9042805332
  H        11.6944828489       10.5510372948        2.6625169385
  H        15.3913071754       11.1681378575        4.7725370947
  H        14.3509588221       13.0708559012        6.0177507920
  H        13.3761410705       11.6309926626        1.2013346792
  H        50.3223134822       22.7482369899        3.9867285622
  H        49.3191702397       24.6225565185        2.6806103235
  H        45.6420644581       24.1617341826        4.8642770356
  H        46.6629644305       22.2908351460        6.1726603099
  H        47.6297834749       23.5758725786        1.2461051824
  H        14.8719959078        8.5880142419        4.6086166606
  H        50.2866157594       22.7022479008       12.0605498290
  H        49.2687028212       24.5750806091       13.3606024692
  H        45.6105884762       24.1099247546       11.1452366564
  H        46.6526897857       22.2546053874        9.8308547780
  H        47.6077898333       23.5518460710       14.7968106440
  H        40.6388364775       17.1072651826       11.4326792320
  H        48.6869725101       14.0953008765        7.7998718901
  H        10.6812234896       12.4667836931       12.0937073090
  H        11.6894494287       10.5248238196       13.2973246820
  H        15.3931115928       11.1584240568       11.2052324703
  H        14.3647376315       13.0868013666        9.9900253922
  H        13.3757911017       11.6219753519       14.7531993426
  H        47.9300492849       14.2184545892        9.7111750405
  H        47.7800177460       14.3743643488        6.4951986160
  H        49.0833133693       18.5524701618       10.8673157010
  H        10.4159788420       14.1344171424        7.9988955375
  H        24.5229240343        3.0280857833        3.9490159934
  H        25.6900990522        4.8773552681        2.7392465617
  H        23.2998578674        7.7595185861        4.8548865669
  H        22.1510708705        5.9004416243        6.0677959607
  H        23.8762851132        5.7783321852        1.3002859758
  H        36.3615525143       32.1737043651        3.9705486688
  H        35.2311655812       30.3491887451        2.7014910769
  H        37.5063783577       27.4285155390        4.8911129313
  H        38.6163647601       29.2658054313        6.1701009932
  H        37.0013335635       29.4386678782        1.2801791284
  H        25.8261365554        8.6166730349        4.6601256685
  H        36.4528165785       32.2402308470       12.1128092972
  H        35.3364707538       30.4244065285       13.4051699788
  H        37.5221173693       27.4858462475       11.1476522604
  H        38.6132944025       29.3135457836        9.8425911745
  H        37.0239077239       29.4643343773       14.8333256774
  H        46.1090757484       26.5876258776       11.3855035400
  H        44.6681782214       35.1161345794        7.8139762252
  H        24.4263050209        3.0224120612       12.0937407344
  H        25.5667649032        4.8491971386       13.3538576707
  H        23.1861925733        7.7603494636       11.2670468646
  H        22.0578495127        5.9212537002       10.0058205566
  H        23.8324288999        5.7709235258       14.8533609377
  H        44.9536678521       34.3901275883        9.6948101080
  H        44.9009634093       34.2065548224        6.4906548103
  H        40.6656187169       33.2092716574       10.8528497990
  H        23.1511419271        1.9578105697        8.0060923388
  H        25.8015342467       19.5849248533        3.8739139619
  H        23.6297941332       19.6591469888        2.6513987075
  H        22.2767066318       16.2194813720        4.8518695536
  H        24.4512618202       16.1652163827        6.0835622172
  H        23.6992103540       17.6388943526        1.2373389151
  H        35.0701058024       15.4153817634        3.9369998815
  H        37.2026127589       15.3604907971        2.6507464341
  H        38.6589709188       18.7009499302        4.9381298547
  H        36.5256142097       18.7324561730        6.2337838142
  H        37.1961818200       17.3264490790        1.2489793118
  H        20.3176080409       17.9594213024        4.6449492724
  H        35.1640718627       15.4268703027       12.1237240698
  H        37.3187472170       15.3544834278       13.3733773241
  H        38.6863919806       18.8074504076       11.2036129291
  H        36.5295628961       18.8551366229        9.9395847253
  H        37.2215224906       17.3474381495       14.8018189500
  H        35.1390563939       26.6841553005       11.3901913504
  H        28.5053305229       21.0664509393        7.7797225446
  H        25.7725267589       19.6208779812       12.1799406586
  H        23.5853364248       19.6824400331       13.3901019909
  H        22.2898400952       16.2076747899       11.2113006123
  H        24.4786448760       16.1652570577        9.9992584757
  H        23.6903684250       17.6388363801       14.7910686085
  H        28.9911525029       21.7300137429        9.6446788604
  H        29.1919123499       21.6943443307        6.4551920192
  H        31.9736678212       18.7180750266       10.9226717627
  H        27.3640565737       19.0125331784        8.0149307002
  H        14.8569272937       19.6789284600       12.0992772392
  H        17.0267553069       19.7390280025       13.3330945106
  H        18.3041787714       16.2023792197       11.2459729669
  H        16.1313088228       16.1587179137       10.0102344265
  H        16.9105239521       17.7400149565       14.8053199760
  H        46.0909369862       15.4496641594       12.0818876721
  H        43.9711791022       15.3880565234       13.3917047559
  H        42.5447096573       18.8175621604       11.2209932808
  H        44.6645611510       18.8525533212        9.8998616461
  H        44.0047557546       17.3112415692       14.8649418727
  H        20.3001886549       17.9530477953       11.3998483313
  H        46.0295111732       15.3709438499        4.0473695087
  H        43.8924822354       15.2859210893        2.7679977982
  H        42.4882732987       18.7491785347        4.8975877115
  H        44.6329729255       18.8209985574        6.1772519096
  H        43.9804141858       17.2739365781        1.3127960738
  H        46.1989521511       26.6826869013        4.6232605818
  H        52.7413518670       21.0628047554        8.1946514564
  H        14.8628765544       19.6795421889        3.9058045163
  H        17.0560773956       19.7542527441        2.7081967943
  H        18.3081858012       16.2063930327        4.7912865748
  H        16.1179518301       16.1564614073        6.0003812714
  H        16.9176241822       17.7417730177        1.2535719618
  H        52.3232120634       21.6739295350        6.2944449474
  H        52.0140926133       21.7030389323        9.4955921416
  H        49.0663750832       18.6073227455        5.2044040036
  H        13.2472328880       19.0163724291        7.9756345127
  H        29.9530576772       12.4599864718       12.2325555652
  H        28.9035855684       10.5146582739       13.4006277718
  H        25.2690534050       11.1545959098       11.1921039426
  H        26.3397588002       13.0806636699       10.0113085802
  H        27.1861886038       11.6627428426       14.7764831855
  H        30.9748770136       22.7971750835       11.9504959862
  H        31.9876322333       24.6457190270       13.2843156776
  H        35.6898090397       24.1394571825       11.1534474453
  H        34.6626800332       22.2884240528        9.8244088291
  H        33.6693151800       23.5683823838       14.7400645603
  H        25.7161601234        8.5637844650       11.4129134435
  H        30.9362948000       22.6273051173        3.8292008317
  H        31.9530588522       24.5305786908        2.5810156819
  H        35.5579618400       24.1092328455        4.8915264804
  H        34.5163571673       22.2236568058        6.1553457178
  H        33.6487876119       23.5409738272        1.1873709101
  H        40.5558908326       17.0087570656        4.6763087326
  H        32.5056614121       14.1118704427        8.3768400906
  H        29.9226502719       12.6319758995        3.8121621518
  H        28.9230120780       10.6888994188        2.6091912323
  H        25.2953788842       11.1583113208        4.8722837699
  H        26.3184599201       13.0796511622        6.0911279794
  H        27.1999381083       11.6888019265        1.2205735833
  H        33.2368622904       14.0830050462        6.4219794625
  H        33.4090380972       14.4231215570        9.6743620943
  H        32.1072125405       18.3475379928        5.0337837689
  H        30.1877336670       14.1350990393        8.1464887553
  H        16.1178520560        2.9632978004       12.1286263333
  H        14.9525503571        4.8202166750       13.3214406915
  H        17.3672203151        7.6859463284       11.2111896316
  H        18.5160594980        5.8185835713       10.0112947575
  H        16.7529713218        5.7391372931       14.7715232530
  H        44.8279295875       32.1401418932       11.9768750718
  H        45.9371701110       30.3412289890       13.3063411733
  H        43.6820413357       27.3780934572       11.1524015934
  H        42.5993472656       29.1900666866        9.8097909059
  H        44.2299167298       29.4365167465       14.7687978992
  H        14.8513083643        8.5461917024       11.3633280605
  H        44.9000572881       32.2339704951        3.9320291146
  H        46.0248182953       30.4128669805        2.6524411597
  H        43.7628232457       27.4840890317        4.8449690880
  H        42.6451335233       29.3178980986        6.1240766314
  H        44.2680815715       29.4703046453        1.2181340410
  H        35.0498510348       26.5965260499        4.6324393703
  H        36.6052380819       35.1338926517        8.1810071333
  H        16.1433916440        3.0126496801        3.9045717377
  H        14.9736359161        4.8558356969        2.6888169491
  H        17.3960433550        7.7470173157        4.7548920764
  H        18.5432814397        5.8932935260        5.9825138936
  H        16.7639799668        5.7549856481        1.2192835982
  H        36.2789227775       34.4819575349        6.2730327886
  H        36.3816112190       34.2089907156        9.4998977124
  H        40.5792572172       33.2024406183        5.1533786231
  H        17.4718291857        1.9476234179        7.9739370692
  H        29.2086264430       19.5973500770       12.3946449145
  H        28.6666970375       18.6487888947        3.7219201230
  H        32.0688061754       16.5882445509       12.5446866172
  H        27.7732682484       17.9502481931       14.0875216084
  H        32.6928184389       17.8834841875        1.5391019029
  H        18.8537918826        0.8687348379       12.3357300504
  H        40.5277175737       35.2290658190        3.9519003079
  H        42.3248346368       34.4195685628        3.5902247705
  H        22.0874324005        0.6923421112       12.3510997036
  H        11.5966414934       18.7127334821       12.3826425716
  H        52.2649873082       18.4315783831        3.6777846599
  H        49.2551948825       16.4763450765        3.5838839513
  H        10.1505623563       15.7982311726       12.2920891066
  H        50.8502311649       17.6929348534        3.9538671248
  H        10.0462017621       17.3948240917       12.0518126503
  H        20.2154520043        0.0021884401       12.0419014739
  H        39.1834963235       36.1245048489        3.6866788814
 Ni        30.2252156395       17.9456271859        2.0069063358
 Ni        31.1186756595       16.5457562638        0.4977199829
 Ni        29.5058289908       17.9638587236       -0.2498098179
 Ni        29.9280650155       17.5775282742       13.2369485265
  O        10.6497867415       14.3652427459        5.4858531211
  O        12.6130194336       14.6574337741        6.5838879890
  O        49.1472963502       16.8459214797        7.9895764207
  O        50.3500006758       20.9362646611        5.6482473298
  O        48.3483956454       20.5931386933        6.6659838056
  O        11.0508912414       17.0540338765        6.5006957195
  O        50.3206262052       20.8816094084       10.4069167139
  O        48.3465468659       20.5865693516        9.3269924547
  O        49.5432923957       18.2482779419       10.0682656008
  O        12.3587599354       18.6247195924        7.9996987518
  O        48.6931201814       14.1487771239        6.7512130911
  O         8.2096903878       14.2106872976        9.3226911781
  O        10.7352118072       14.5068347942       10.6643226312
  O        12.5716981816       14.5827517049        9.3285616264
  O        22.8460901495        2.0451999834        5.4866774930
  O        21.6084571550        3.5946049171        6.5869788813
  O        42.0580467140       34.1374070743        7.9784756740
  O        37.9812778732       33.1336204858        5.5713387833
  O        39.2173979832       31.5744060423        6.6655451920
  O        20.3085090873        1.0399727974        6.5020770758
  O        38.0245535149       33.1853254657       10.4155989607
  O        39.2184903440       31.5832149029        9.3271800665
  O        40.6522955502       33.7695163372       10.0599126571
  O        18.2565527155        1.3764973060        7.9966504180
  O        44.6221955778       35.1005710462        6.7587045006
  O        24.2054359454       -0.0000400213        9.3206406811
  O        22.7528699723        2.0558827291       10.5834434714
  O        21.6254705600        3.5968747614        9.3448018468
  O        27.4882258610       18.6166509704        5.4088676150
  O        26.6888806734       16.9082934746        6.6674429057
  O        30.6331813986       19.3409749011        7.9179806796
  O        33.4876251595       16.2492671759        5.6542128014
  O        34.2250020602       18.1002035375        6.7420093119
  O        29.5431293659       16.9967451774        6.5801334461
  O        33.4884909653       16.3968796902       10.5847273956
  O        34.2619705821       18.1786898089        9.4048002970
  O        31.6136696803       18.3815491942       10.0847648622
  O        30.2936405548       15.1005833432        8.1572973167
  O        28.5531901624       21.0146925518        6.7359591748
  O        28.5031283352       20.9567784948        9.3144342880
  O        27.4593898227       18.6824542928       10.6506483175
  O        26.6914987853       16.9292002976        9.4144085941
  O        13.1468196893       18.6938376983       10.5861243294
  O        13.9180489706       16.9160834263        9.4041206244
  O        50.5954844175       19.3501438180        8.0206387315
  O        47.6800257936       16.3280516175       10.4183468888
  O        46.9486947855       18.1757380854        9.3264352259
  O        11.0687759150       17.0159015664        9.4894677598
  O        47.6725590168       16.3361384624        5.6520648927
  O        46.9231183740       18.2357493019        6.6620055316
  O        49.5683067191       18.3177190394        5.9822791717
  O        10.3185982012       15.1002698324        7.9971525022
  O        52.6706908387       21.0279778537        9.2417978531
  O        12.1467870741       20.8913835875        6.6733692315
  O        13.1041748879       18.6143221754        5.3262046888
  O        13.9552009971       16.9867172998        6.6652145760
  O        29.9815966694       14.4437870952       10.7409151428
  O        28.0818168636       14.6515991201        9.5011057005
  O        32.0690724965       16.8407208064        8.1500042456
  O        30.9268515193       21.0283619011       10.2450325980
  O        32.9541633251       20.5936417099        9.3180116982
  O        29.5533686212       17.0748460602        9.5770035527
  O        30.8758336750       20.8021505729        5.4945953019
  O        32.8422046094       20.5037503192        6.5880463487
  O        31.6005342014       18.0983275767        5.8246764999
  O        28.2543846982       18.6245491404        7.9953417527
  O        32.4924585978       14.2188787428        9.4151145401
  O        32.3613675845       14.1415117654        6.8385717707
  O        29.9157626573       14.5815203961        5.4157200300
  O        28.0563294116       14.5856133745        6.7381928564
  O        17.8893465615        1.9666813484       10.6627277942
  O        18.9564694741        3.5271718792        9.4078171708
  O        39.1685179898       34.1386884476        7.9970936161
  O        43.2801780637       33.0588453142       10.3316615919
  O        42.0343181374       31.5064603003        9.2415184129
  O        20.3179176758        1.0371632954        9.4795194632
  O        43.2760331016       33.1825406499        5.5748517362
  O        42.0052174535       31.5840722004        6.5829807110
  O        40.5788243105       33.7750045330        5.9355947238
  O        22.3675705268        1.3851809225        7.9976214095
  O        36.6729351813       35.0997856988        9.2334076171
  O        16.4458458984        0.0639272774        6.6680144765
  O        17.9364422676        2.0432008509        5.3264792894
  O        18.9194329036        3.5931273959        6.6658219375
  O        29.6195148322       18.7549225737        3.9029851112
  O        29.8589477838       19.0553680706       11.9089735060
  O        31.1786279960       16.4922658145       12.1641067370
  O        32.0998241350       17.2070214423        1.9183677140
  O        28.6008460561       18.4520153945       14.2269672779
  O        39.4567140590       35.2438087563        4.0020085742
  O        19.1418119723        0.0045413281       11.9904248288
  O        41.9696320423       35.1728036233        4.0872192286
  O        21.6912019319       -0.0694324049       11.8958855100
  O        51.3648515579       18.6144803451        4.0052193016
  O        10.7508937989       18.7471107945       11.9049945881
  O        50.0792675772       16.4126717859        4.0917659530
  O         9.5244252616       16.4831332693       11.9911327208
 Zr         9.2973534677       16.0530700310        6.1820844343
 Zr        49.8363844040       16.0070345893        9.7465740396
 Zr        22.0733152416        0.0310133414        6.1885105601
 Zr        42.4608266791       35.1535615984        9.8006541827
 Zr        29.5670901773       19.0022842510        6.1013100025
 Zr        29.5467538583       19.2011422789        9.7752923613
 Zr        11.0380183368       19.0523415172        9.8278656725
 Zr        11.0437228227       19.1552871201        6.2510361666
 Zr        31.2792180376       16.1226759989       10.0071187205
 Zr        31.3850310466       15.9636565216        6.4527079629
 Zr        18.6015727738       -0.0008822161        9.7634397467
 Zr        18.5065622483       -0.0082552945        6.2137088326
 Zr        12.3019313187       16.3232777533        7.9906603041
 Zr        48.6161112417       18.8329567020        8.0100108738
 Zr        20.3167077039        2.4748789291        7.9898406389
 Zr        40.6429414984       32.6870010088        7.9777482082
 Zr        28.3101876534       16.3262474750        8.0867879438
 Zr        32.5789637130       18.8474564921        8.0406794709
  H        28.8313653040       17.8685982154        1.2905902504
