     573
 i =      111, E =     -4762.7801122664
  C        11.8593649064       14.0530517744        5.7415287359
  C        12.4565629243       12.8900600236        5.0233178230
  C        11.7050421783       12.1715420953        4.0812086880
  C        12.2814686471       11.1093910941        3.3888370345
  C        13.6219020713       10.7393335346        3.6169523079
  C        14.3548953493       11.4425522196        4.5908162809
  C        13.7819603806       12.5074246667        5.2824082576
  C        14.2614809937        9.6487611699        2.8435014600
  C        14.2569075374        9.6568032343        1.4218013106
  C        13.7439723273       10.7590808448        0.6679616500
  C        49.1253900555       21.2323384227        5.8795304616
  C        48.5480937768       22.4002641739        5.1528453218
  C        49.2978678509       23.0670234889        4.1712237898
  C        48.7310215778       24.1061377620        3.4379855622
  C        47.4007564480       24.5084357440        3.6671081945
  C        46.6701322953       23.8602885686        4.6813424571
  C        47.2325391653       22.8153910934        5.4107949435
  C        46.7706924716       25.5861545888        2.8697098353
  C        46.7597808589       25.5564811379        1.4479222911
  C        47.2595353704       24.4412895570        0.7044430932
  C        14.8607409706        8.5704225747        0.7085101405
  C        14.8921322402        8.5967323038        3.5201284131
  C        49.1124736583       21.2026122779       10.1445274263
  C        48.5270512439       22.3640358643       10.8720417831
  C        49.2661714914       23.0246511129       11.8650863904
  C        48.6898027363       24.0591061556       12.5967326651
  C        47.3594212217       24.4559496845       12.3585141459
  C        46.6390541201       23.8111117899       11.3349077528
  C        47.2126793935       22.7752949951       10.6030095105
  C        46.7209860956       25.5310076475       13.1495119707
  C        46.7324302829       25.5273554051       14.5712280812
  C        47.2475159085       24.4280294047       15.3276748312
  C        40.6102757837       17.1325415811       15.3308624510
  C        40.6404444404       17.1522704919       12.5205550230
  C        11.8828950614       14.0865223212       10.2856175189
  C        12.4722881929       12.9108242835       10.9900101689
  C        11.7148857755       12.1774939427       11.9161013879
  C        12.2816113947       11.0950295125       12.5844118942
  C        13.6204596940       10.7214516249       12.3524973267
  C        14.3583488753       11.4372009077       11.3917767926
  C        13.7927946243       12.5183853584       10.7192172381
  C        14.2541834289        9.6246499281       13.1227649658
  C        14.2530557358        9.6445810423       14.5446038158
  C        13.7434061578       10.7536030457       15.2917097070
  C        22.5242774903        3.2502986720        5.7571706011
  C        23.2628369744        4.3572585553        5.0744856086
  C        24.2788777106        4.0762189352        4.1478450224
  C        24.9283606183        5.1133599985        3.4803525212
  C        24.5817722415        6.4595894338        3.7153775875
  C        23.5953726591        6.7324118662        4.6814512140
  C        22.9414536093        5.6966307852        5.3481840885
  C        25.1985961524        7.5623261098        2.9328112873
  C        25.1457931632        7.5529851874        1.5103362317
  C        24.4265558458        6.5549803365        0.7780464272
  C        38.3003906427       31.9269417919        5.8531265811
  C        37.5670423296       30.8318796299        5.1551607558
  C        36.5967924081       31.1252750636        4.1848516077
  C        35.9797545486       30.0975038355        3.4767201520
  C        36.3191954626       28.7511486079        3.7153803590
  C        37.2573156743       28.4651068459        4.7249790896
  C        37.8774979153       29.4913839249        5.4328377392
  C        35.7272088234       27.6538688115        2.9166883910
  C        35.7610722693       27.6744671071        1.4951183382
  C        36.4584306628       28.6862932457        0.7622073755
  C        25.7592661212        8.6190332054        0.7754565370
  C        25.8215633422        8.6346859017        3.5877504967
  C        38.3301063447       31.9605991955       10.1614990470
  C        37.6128919525       30.8890465313       10.9134795077
  C        36.6875025558       31.2013728314       11.9217077528
  C        36.0775914731       30.1866454747       12.6579591016
  C        36.3767488964       28.8317798248       12.4101924257
  C        37.2824787288       28.5295097363       11.3743163696
  C        37.8949191446       29.5407047677       10.6397609147
  C        35.7641264540       27.7323957325       13.1941716559
  C        35.7790620376       27.7156807923       14.6169376995
  C        36.4680718463       28.7056162040       15.3855207983
  C        46.1345654095       26.6201092782       15.2813187287
  C        46.0873302413       26.5795279566       12.4734103038
  C        22.4572173953        3.2568768915       10.2653926415
  C        23.1414199360        4.3640315879       11.0029730050
  C        24.1369118228        4.0751706844       11.9504171875
  C        24.7607655744        5.1021398932       12.6556607954
  C        24.4104103342        6.4498341835       12.4371543439
  C        23.4332673694        6.7316105518       11.4630155519
  C        22.8051808673        5.7049260993       10.7578624834
  C        25.0513957377        7.5479084982       13.2053862148
  C        25.0699895718        7.5450613153       14.6289810711
  C        24.3893153598        6.5516330810       15.4014070687
  C        26.5434816804       17.8609680781        5.8310955758
  C        25.2475971688       17.9097536861        5.0945732006
  C        25.0017510523       18.9094489890        4.1404589793
  C        23.8007892464       18.9271539771        3.4351203123
  C        22.8118377039       17.9501971332        3.6655459207
  C        23.0532759300       16.9731369569        4.6495262999
  C        24.2569331847       16.9483291841        5.3504449651
  C        21.5481018266       17.9369449217        2.8904465186
  C        21.5566160614       17.9244493537        1.4685181870
  C        22.7665691600       17.8094922625        0.7141785842
  C        34.3606343320       17.1843365922        5.8722549067
  C        35.6542180750       17.1163693344        5.1378867713
  C        35.8503320864       16.1799913080        4.1099720276
  C        37.0453369875       16.1625192284        3.3942294977
  C        38.0759744140       17.0811783454        3.6795340305
  C        37.8799978420       17.9948043677        4.7340636487
  C        36.6860243653       18.0168936359        5.4500383520
  C        39.3384892876       17.1007849745        2.9026100983
  C        39.3419305264       17.1363648970        1.4799027421
  C        38.1403438685       17.2747466022        0.7159499677
  C        20.3132891283       17.9418823200        0.7551101554
  C        20.3217532367       17.9312936145        3.5677692017
  C        34.4292979370       17.2093707835       10.2319489319
  C        35.7399163462       17.1267285390       10.9338348369
  C        35.9565596086       16.1644033147       11.9320049376
  C        37.1513208615       16.1516403987       12.6460637355
  C        38.1586625813       17.1016419524       12.3849875420
  C        37.9498409408       18.0338917376       11.3509260039
  C        36.7543045005       18.0513026615       10.6381287163
  C        39.4059899013       17.1360825448       13.1805222976
  C        39.3763470585       17.1552958652       14.6021875435
  C        38.1566035979       17.2817554778       15.3391259759
  C        35.1577522198       26.6275330042       15.3169983300
  C        35.1645331525       26.6687778503       12.5072123545
  C        26.5603985952       17.8300975533       10.3264743367
  C        25.2492900696       17.8796258039       11.0293513528
  C        24.9943845841       18.8789382281       11.9806376954
  C        23.7768578604       18.9085461774       12.6530227636
  C        22.7875968748       17.9381644342       12.3988068463
  C        23.0372666153       16.9638669265       11.4152400791
  C        24.2549087915       16.9323896005       10.7397507343
  C        21.5243196774       17.9219803770       13.1697257712
  C        21.5442420350       17.9139353763       14.5912330823
  C        22.7603926310       17.8027379849       15.3376763288
  C        14.0456612573       17.8313902798       10.2853357488
  C        15.3513523907       17.8942288086       11.0044435729
  C        15.6087342022       18.9037109195       11.9448558919
  C        16.8187205647       18.9285230967       12.6348203864
  C        17.8034118007       17.9466661448       12.4054832505
  C        17.5517353059       16.9626805620       11.4311857860
  C        16.3412333667       16.9333255193       10.7426727367
  C        19.0696986003       17.9300576524       13.1763641295
  C        19.0625326013       17.9254243396       14.5981733355
  C        17.8518746361       17.8249063953       15.3531964530
  C        46.8028040687       17.2217229543       10.1624380229
  C        45.5137715430       17.1657751800       10.9148006094
  C        45.3103659244       16.1971639331       11.9102931759
  C        44.1302130617       16.1834295061       12.6505223626
  C        43.1197797695       17.1373820711       12.4177268057
  C        43.3215393318       18.0869136434       11.3971584560
  C        44.5028961468       18.1053389479       10.6589024460
  C        41.8627446582       17.1474055917       13.2040706098
  C        41.8604117391       17.1498099038       14.6270029920
  C        43.0643939830       17.2499853998       15.3925745514
  C        20.3064346059       17.9363740785       15.3108048437
  C        20.2952220017       17.9101589271       12.4983940121
  C        46.7956998700       17.2016345203        5.8572332211
  C        45.4783737070       17.1066552919        5.1610234409
  C        45.2462202677       16.1171442364        4.1927706751
  C        44.0469866983       16.0925965868        3.4847430823
  C        43.0468977206       17.0559732865        3.7233732625
  C        43.2687142791       18.0134579198        4.7313628807
  C        44.4694061818       18.0432471830        5.4369428581
  C        41.7966051430       17.0845367654        2.9276946665
  C        41.8266064259       17.1172794802        1.5057445856
  C        43.0481083986       17.2330808864        0.7694746209
  C        46.1521615349       26.6365390132        0.7260910203
  C        46.1610483715       26.6555281055        3.5357371154
  C        14.0400307635       17.8287424586        5.7071659234
  C        15.3544159763       17.8984947207        5.0090324330
  C        15.6237715109       18.9181741592        4.0843672526
  C        16.8483181919       18.9547140384        3.4228120788
  C        17.8277772475       17.9706229476        3.6620006179
  C        17.5644105364       16.9777435081        4.6226053014
  C        16.3419978846       16.9407172619        5.2878330472
  C        19.0938934248       17.9509346916        2.8951562285
  C        19.0751914623       17.9358373435        1.4743157235
  C        17.8580579273       17.8293956419        0.7294348319
  C        28.8014241787       14.0848972808       10.3941208492
  C        28.1914620270       12.9068282712       11.0733280625
  C        28.9194803021       12.1543431452       12.0075882400
  C        28.3195852111       11.0802086528       12.6598651084
  C        26.9769791736       10.7333633994       12.4042899069
  C        26.2713468493       11.4641823947       11.4312957676
  C        26.8688375426       12.5386838646       10.7765780277
  C        26.3100469357        9.6580922641       13.1757391393
  C        26.3203126057        9.6880896484       14.5970570234
  C        26.8341671098       10.8040581769       15.3303502907
  C        32.1696050964       21.2383959508       10.1932738467
  C        32.7545403845       22.4088251570       10.9051687594
  C        32.0185653818       23.0688174800       11.9016721061
  C        32.5931237964       24.1125425690       12.6210440729
  C        33.9163591399       24.5232484073       12.3646378207
  C        34.6305919282       23.8833662022       11.3343508023
  C        34.0607783945       22.8339666184       10.6179050164
  C        34.5555296251       25.5929093276       13.1633137324
  C        34.5679569627       25.5463975230       14.5844326714
  C        34.0855742406       24.4153685756       15.3163500489
  C        25.7234534175        8.6123179011       15.3299657594
  C        25.6589966079        8.6073701509       12.5162039296
  C        32.1395208292       21.1628586811        5.8885516244
  C        32.7337651622       22.3137399909        5.1504498837
  C        32.0144304221       22.9383639195        4.1189718356
  C        32.5906035916       23.9753044563        3.3890194542
  C        33.9006032050       24.4157245928        3.6655212431
  C        34.6020708719       23.7999430046        4.7210927372
  C        34.0311471644       22.7590274663        5.4494234880
  C        34.5360361934       25.5043892716        2.8854363797
  C        34.5576961894       25.5009297895        1.4622624399
  C        34.0813418332       24.3926872803        0.6931031510
  C        40.5924844393       17.1191862266        0.7764145692
  C        40.5614368696       17.0917602813        3.5870179021
  C        28.8214866917       14.1712361186        5.7301711905
  C        28.2393145509       13.0075196815        4.9954875228
  C        28.9651394248       12.3143400270        4.0139487477
  C        28.3928761209       11.2265104909        3.3534116970
  C        27.0789251071       10.8018305786        3.6444753212
  C        26.3734541985       11.4848700922        4.6536250446
  C        26.9418141351       12.5703974474        5.3156181211
  C        26.4277672516        9.6951202625        2.8960042798
  C        26.3821046731        9.7061589184        1.4738495102
  C        26.8609669918       10.8141612941        0.7058350290
  C        18.1356778850        3.1809440797       10.3169107778
  C        17.4064037625        4.2782388476       11.0154323220
  C        16.3906236045        3.9999058500       11.9429025804
  C        15.7429101217        5.0398879622       12.6064011232
  C        16.0948828336        6.3836139684       12.3668095848
  C        17.0842703482        6.6531216298       11.4030319992
  C        17.7333449286        5.6157740123       10.7379663270
  C        15.4705893957        7.4912897204       13.1299238929
  C        15.4858535157        7.4904757064       14.5516444038
  C        16.1872646090        6.4967348219       15.3047881255
  C        42.9459135679       31.8594692153       10.0728901516
  C        43.6462375308       30.7717574414       10.8167406510
  C        44.5919707402       31.0928843588       11.8026927579
  C        45.1975956151       30.0871984769       12.5502414133
  C        44.8708739366       28.7341887131       12.3354330478
  C        43.9448924410       28.4200552290       11.3222971391
  C        43.3361541452       29.4253171754       10.5743644787
  C        45.4882270514       27.6547530137       13.1386366173
  C        45.4922222126       27.6804050529       14.5603278705
  C        44.8053151688       28.6886372631       15.3068700586
  C        14.8569895625        8.5629794376       15.2640762548
  C        14.8753274565        8.5631235887       12.4513994356
  C        42.9464173791       31.9618119102        5.8089293881
  C        43.6914528540       30.8856282674        5.0953033982
  C        44.6561295834       31.1912846385        4.1229948624
  C        45.2774142104       30.1715479816        3.4052489712
  C        44.9533151396       28.8212824765        3.6428063679
  C        44.0197025109       28.5238673562        4.6535443992
  C        43.3917097356       29.5407677496        5.3657551368
  C        45.5620936003       27.7236744440        2.8576061810
  C        45.5324652296       27.7169181655        1.4363025985
  C        44.8264818461       28.7073178917        0.6832642002
  C        35.1503609932       26.6048977612        0.7623733128
  C        35.1322466641       26.5699510858        3.5725228254
  C        18.1489067670        3.2468712912        5.7067002934
  C        17.4302072488        4.3436922970        4.9975917482
  C        16.4152260072        4.0523007310        4.0737796674
  C        15.7669364974        5.0828364511        3.3982449387
  C        16.1213662558        6.4281288507        3.6210417730
  C        17.1124046454        6.7116284320        4.5786344666
  C        17.7600818881        5.6828133955        5.2585458963
  C        15.4909219176        7.5237946475        2.8485159206
  C        15.4968248827        7.5072087799        1.4273712547
  C        16.1934587351        6.5054679277        0.6806095548
  H        10.6730777052       12.4659736092        3.9037486216
  H        11.6953479870       10.5511873543        2.6619526432
  H        15.3918578720       11.1678233851        4.7727359807
  H        14.3512807649       13.0704305359        6.0181302445
  H        13.3772138150       11.6312990984        1.2012940205
  H        50.3203619567       22.7465413985        3.9860896212
  H        49.3174058045       24.6209127476        2.6799988854
  H        45.6409211157       24.1616717406        4.8650903590
  H        46.6617611626       22.2910959752        6.1737022311
  H        47.6278179093       23.5748032728        1.2461197248
  H        14.8723952471        8.5879241768        4.6084334701
  H        50.2862307516       22.7018307794       12.0599790939
  H        49.2682369500       24.5744650916       13.3602762005
  H        45.6096679293       24.1084073715       11.1458176207
  H        46.6519364111       22.2531519781        9.8313783692
  H        47.6062996718       23.5509010518       14.7967892692
  H        40.6513897710       17.1126218152       11.4329482694
  H        48.6833696508       14.0974693150        7.8003916656
  H        10.6813908714       12.4664406260       12.0935717792
  H        11.6899034257       10.5245008314       13.2970705012
  H        15.3938430692       11.1595443023       11.2058554078
  H        14.3651204813       13.0879806307        9.9908525252
  H        13.3767866815       11.6223238038       14.7531021608
  H        47.9304384179       14.2185879389        9.7127562006
  H        47.7794492176       14.3585256948        6.4861268502
  H        49.0808013293       18.5521726868       10.8644439293
  H        10.4171144906       14.1338059768        8.0004828188
  H        24.5377957527        3.0369278437        3.9574124031
  H        25.7119579405        4.8881075431        2.7599571538
  H        23.3155329176        7.7661215690        4.8742317640
  H        22.1586774717        5.9050238824        6.0737471927
  H        23.8744243309        5.7998666419        1.3299152643
  H        36.3515151193       32.1660231678        3.9865561739
  H        35.2282049693       30.3286383761        2.7250128856
  H        37.5267062499       27.4286693069        4.9176004775
  H        38.6282423881       29.2782752688        6.1900580173
  H        37.0176474678       29.4377335892        1.3119380079
  H        25.8757842121        8.6205781163        4.6750225169
  H        36.4655161242       32.2464541363       12.1257077571
  H        35.3542549671       30.4374181735       13.4307687567
  H        37.5277237456       27.4883182870       11.1753924789
  H        38.6148993199       29.3092777762        9.8584729619
  H        37.0358893572       29.4710569860       14.8642977380
  H        46.1089119694       26.5869416433       11.3853773759
  H        44.6681746187       35.1161029130        7.8137600434
  H        24.4153155768        3.0365554776       12.1141947084
  H        25.5391004680        4.8685783522       13.3790041724
  H        23.1482524070        7.7665994995       11.2851636386
  H        22.0375045236        5.9223117075       10.0187033624
  H        23.8073873222        5.7948924672       14.8830502634
  H        44.9536198347       34.3904876182        9.6952140214
  H        44.9005135985       34.2064978912        6.4904228596
  H        40.6662339202       33.2095919054       10.8533335087
  H        23.1513765412        1.9580918695        8.0076458043
  H        25.7615219657       19.6674309229        3.9641533938
  H        23.6140116147       19.7066258417        2.6995882110
  H        22.2988905050       16.2109999656        4.8337372087
  H        24.4574980159       16.1804271268        6.0937560880
  H        23.7062609753       17.6948897918        1.2467987307
  H        35.0516127250       15.4798684916        3.8756181799
  H        37.1927322391       15.4280572744        2.6055798582
  H        38.6636054591       18.7144347821        4.9618998379
  H        36.5228483839       18.7398241802        6.2458756179
  H        37.1974736395       17.4071414616        1.2387488408
  H        20.3237026686       17.9647554478        4.6557775842
  H        35.1706796665       15.4447321064       12.1489656343
  H        37.3153556780       15.4040077745       13.4188617688
  H        38.7202412044       18.7733479415       11.1422978163
  H        36.5730380233       18.7922971660        9.8632628804
  H        37.2261041330       17.4182386742       14.7954473763
  H        35.1263332894       26.7050481200       11.4200986060
  H        28.5193085049       21.0889328509        7.9893182135
  H        25.7620322084       19.6229713840       12.1793535333
  H        23.5785187167       19.6871476076       13.3862752436
  H        22.2803453994       16.2085476276       11.2142844990
  H        24.4644398980       16.1688049053        9.9945832268
  H        23.6957596785       17.6824595138       14.7991462924
  H        28.9902581143       21.7189496461        9.7780893933
  H        29.1268196328       21.7636493537        6.6056079771
  H        32.0497657580       18.5440448504       11.0900908881
  H        27.4066034406       19.0907594096        8.1109272724
  H        14.8498155354       19.6629343475       12.1199399823
  H        17.0162189376       19.7158656156       13.3591032522
  H        18.3033017226       16.1979216172       11.2462798666
  H        16.1330805340       16.1606311013       10.0064752886
  H        16.9118280174       17.7112302082       14.8212738099
  H        46.0943533693       15.4670314300       12.0974884438
  H        43.9760146246       15.4227214837       13.4126997275
  H        42.5520851407       18.8334933155       11.2114775159
  H        44.6717547812       18.8538539371        9.8882019034
  H        44.0082454839       17.3712939967       14.8685429641
  H        20.2930309564       17.9400377725       11.4102744922
  H        46.0223279750       15.3810512315        3.9959921284
  H        43.8736589500       15.3243153207        2.7343099893
  H        42.5039947041       18.7628121893        4.9253574084
  H        44.6585068437       18.8028309268        6.1918622421
  H        43.9797809600       17.3404973461        1.3172979791
  H        46.1979173726       26.6821656047        4.6231796400
  H        52.7412167927       21.0625553708        8.1943609358
  H        14.8642544119       19.6752814254        3.9026864526
  H        17.0602053081       19.7481502203        2.7093730719
  H        18.3143078892       16.2124333419        4.8117210416
  H        16.1206650311       16.1634163702        6.0150976691
  H        16.9226781766       17.7189382388        1.2698082320
  H        52.3225375106       21.6736559384        6.2946212728
  H        52.0138036053       21.7028187944        9.4953789654
  H        49.0686937121       18.6063752910        5.2029137894
  H        13.2472468791       19.0158763113        7.9765171342
  H        29.9528525408       12.4264153183       12.2104585039
  H        28.8857385430       10.4980831072       13.3837776940
  H        25.2340995203       11.2078483442       11.2255035811
  H        26.3184848149       13.1252164701       10.0450340445
  H        27.1806797692       11.6745839767       14.7816068219
  H        31.0039832341       22.7370631804       12.1107225465
  H        32.0202438709       24.6221914049       13.3926719630
  H        35.6539087165       24.1916775888       11.1303957294
  H        34.6200769476       22.3132270210        9.8443450443
  H        33.7435638253       23.5439352221       14.7654106345
  H        25.6713982222        8.5840869632       11.4279233648
  H        31.0111502369       22.5850177046        3.8908000154
  H        32.0233596568       24.4596849490        2.5973455352
  H        35.6167514785       24.1251553915        4.9412784083
  H        34.5819842683       22.2642804976        6.2459858604
  H        33.7369075967       23.5029676296        1.2129914973
  H        40.5509566929       17.0372238777        4.6740780962
  H        32.5236628421       14.1356517157        8.3653828533
  H        29.9778794803       12.6376524326        3.7823882546
  H        28.9670620383       10.6894385193        2.6014715385
  H        25.3567081520       11.1770026979        4.8889597949
  H        26.3875682865       13.1080570525        6.0807774548
  H        27.2269376742       11.6933912635        1.2276141932
  H        33.2758512524       14.1472004157        6.4196726217
  H        33.4024504913       14.4325541981        9.6843083074
  H        32.2130332531       18.5551419825        5.2134634124
  H        30.2379565413       14.1784648919        8.1354799074
  H        16.1184599970        2.9634193469       12.1292488024
  H        14.9533902266        4.8204972488       13.3219821464
  H        17.3666820081        7.6860026955       11.2099136952
  H        18.5153232147        5.8184387391       10.0100581475
  H        16.7537160145        5.7393309690       14.7712686708
  H        44.8284938491       32.1399084434       11.9768924622
  H        45.9376196115       30.3407872304       13.3060871501
  H        43.6820013173       27.3780361657       11.1521890131
  H        42.5994026469       29.1901109266        9.8097931317
  H        44.2301873151       29.4365343020       14.7685048117
  H        14.8515208623        8.5464242410       11.3631794070
  H        44.8999867016       32.2338946029        3.9315603802
  H        46.0244096272       30.4126171070        2.6520495675
  H        43.7624295332       27.4842067153        4.8450561170
  H        42.6451534040       29.3180918159        6.1241744885
  H        44.2681259099       29.4703664055        1.2177744858
  H        35.0851681734       26.5811963788        4.6598458247
  H        36.6051307070       35.1339066898        8.1810085474
  H        16.1442745934        3.0127030465        3.9039846316
  H        14.9747746943        4.8558691011        2.6880166202
  H        17.3956685358        7.7471404859        4.7556616278
  H        18.5427329689        5.8934045501        5.9835095815
  H        16.7647606629        5.7550882437        1.2189911645
  H        36.2785658859       34.4825089354        6.2728676487
  H        36.3810520550       34.2091216805        9.4999722064
  H        40.5794590015       33.2025044134        5.1538876941
  H        17.4719260923        1.9472046737        7.9740285953
  H        28.7675337232       19.0790395352       12.4468587121
  H        28.6276352279       19.0935339264        3.7971194504
  H        31.3248782464       15.6761863141       12.6829112126
  H        28.2979606783       17.3711767261       15.1217611746
  H        29.7386821026       15.3302158815       14.7503624703
  H        32.2121518790       18.7358066997       -0.4431371516
  H        32.4344271720       17.8874971870        1.5820292653
  H        28.9641227197       17.6125516932        1.3865167759
  H        32.5263992562       17.7249761797       14.3434070999
  H        18.8535199718        0.8688571384       12.3355111755
  H        40.5274463975       35.2291495087        3.9518945900
  H        42.3249985971       34.4194701807        3.5906733081
  H        22.0881067397        0.6919663204       12.3511759381
  H        11.5968454442       18.7120941495       12.3820150435
  H        52.2643683854       18.4339527296        3.6746204486
  H        49.2522551953       16.4803616826        3.5935924768
  H        10.1504057309       15.7984700103       12.2921442624
  H        50.8507818760       17.6912189648        3.9526166694
  H        10.0456692899       17.3948018887       12.0514863380
  H        20.2151543849        0.0024435533       12.0420028786
  H        39.1832743170       36.1243693459        3.6864615479
 Ni        30.5627487035       18.1392616594        2.9112596381
 Ni        31.1556234120       16.5744762488        0.1694212875
 Ni        29.8095776780       19.1570545249       -0.3340206024
 Ni        29.9733673842       17.3520325975       13.4037950765
  O        10.6503282894       14.3647826308        5.4853857647
  O        12.6131535002       14.6571748041        6.5838044181
  O        49.1469411128       16.8421494513        7.9863042439
  O        50.3490512675       20.9365757544        5.6487001008
  O        48.3472268506       20.5912585919        6.6656343494
  O        11.0520266175       17.0530104450        6.5003212925
  O        50.3205252048       20.8813692810       10.4066780971
  O        48.3464075442       20.5859625455        9.3264404699
  O        49.5434833472       18.2478723601       10.0670194517
  O        12.3585688150       18.6246353918        7.9997173459
  O        48.6933281932       14.1491485316        6.7513668717
  O         8.2093075234       14.2104933960        9.3224199907
  O        10.7351854960       14.5067591760       10.6642870370
  O        12.5717263737       14.5826861247        9.3286088736
  O        22.8466602538        2.0470781883        5.4858481720
  O        21.6097150053        3.5958597634        6.5864586032
  O        42.0581741578       34.1376567381        7.9785408778
  O        37.9813529868       33.1346500240        5.5722280728
  O        39.2195329145       31.5765131181        6.6678954314
  O        20.3087461461        1.0403434491        6.5022780702
  O        38.0243451421       33.1851052582       10.4158598050
  O        39.2178433361       31.5826730479        9.3282412913
  O        40.6522600501       33.7694563602       10.0601278756
  O        18.2565041832        1.3758496161        7.9967205917
  O        44.6221713930       35.1006363378        6.7586044075
  O        24.2053166020        0.0001458250        9.3207357491
  O        22.7532127670        2.0580016274       10.5848541184
  O        21.6256778973        3.5978242209        9.3461788918
  O        27.4147811434       18.7618418322        5.5763191702
  O        26.6953407772       16.9172897131        6.6791885523
  O        30.6960112119       19.3456699051        8.0817029521
  O        33.4514940899       16.3239722550        5.5737135573
  O        34.2242239989       18.1056031412        6.7427112257
  O        29.5755587748       17.0677146566        6.6492488984
  O        33.5409762578       16.3294189504       10.5053950851
  O        34.2707807085       18.1785653106        9.4157038219
  O        31.6414576607       18.3158710724       10.2380939365
  O        30.3241922323       15.1462332051        8.1559016028
  O        28.5561547450       21.0354216194        6.9099922184
  O        28.5165770918       20.9523832394        9.4124669652
  O        27.4487852446       18.6827483493       10.6536504698
  O        26.6912829627       16.9293478282        9.4173939767
  O        13.1468544755       18.6936063122       10.5865261898
  O        13.9182196733       16.9161534853        9.4043546042
  O        50.5955756940       19.3492981519        8.0195469344
  O        47.6803467191       16.3283709688       10.4184897267
  O        46.9501528558       18.1763203914        9.3254134032
  O        11.0686315939       17.0159839634        9.4894926578
  O        47.6868948241       16.3218198310        5.5749704351
  O        46.9552303298       18.1756715098        6.6638687374
  O        49.5704988955       18.3170707128        5.9809124479
  O        10.3187702301       15.0995598119        7.9969194184
  O        52.6706672323       21.0279581859        9.2416521262
  O        12.1465665407       20.8911950628        6.6731873700
  O        13.1048839272       18.6141842465        5.3263961983
  O        13.9546600562       16.9861917281        6.6657977335
  O        29.9858310009       14.4393591562       10.7407015843
  O        28.0879048089       14.6516079133        9.4949479021
  O        32.1335151666       16.8528164081        8.1570102636
  O        30.9522400260       20.9449722729       10.4232274957
  O        32.9543182931       20.5908013894        9.4075565592
  O        29.5653979857       17.0755998317        9.5810616845
  O        30.9155047088       20.8808990271        5.6702016790
  O        32.9180792060       20.5056054996        6.6702618900
  O        31.5631785544       18.1689534791        5.8231284044
  O        28.2868626527       18.6799674413        8.0903799928
  O        32.4918352849       14.2143293932        9.4110197671
  O        32.4041554856       14.2135643875        6.8421601486
  O        29.9941272901       14.5909837249        5.4129853614
  O        28.0960034977       14.6533830426        6.6703844148
  O        17.8893626696        1.9666299212       10.6626829928
  O        18.9565583746        3.5270609323        9.4077057346
  O        39.1686418096       34.1387155880        7.9971939248
  O        43.2801751907       33.0589527092       10.3316786923
  O        42.0344501622       31.5064880382        9.2416433250
  O        20.3181135709        1.0374319073        9.4795661593
  O        43.2761374534       33.1828524283        5.5749396160
  O        42.0052969236       31.5842232020        6.5830017886
  O        40.5791644149       33.7754909303        5.9357997045
  O        22.3677724008        1.3855321401        7.9976116192
  O        36.6729305445       35.0997314860        9.2334367683
  O        16.4458675614        0.0641034610        6.6680868090
  O        17.9365193198        2.0433139207        5.3265491581
  O        18.9197016162        3.5931064224        6.6659396055
  O        29.5278072539       19.0492820381        4.1690036456
  O        29.6159803903       18.7617409360       12.0815004855
  O        31.1875195645       16.4855162993       12.1515246761
  O        31.7694028092       17.2182306678        1.8381587276
  O        29.3108479777       18.5217052617        1.5070123292
  O        30.4962646729       15.9091704237       14.5616029849
  O        32.6097862994       17.8000630957       15.3135111000
  O        31.4082446061       19.9292820841        0.1825200171
  O        28.6468427931       18.0979103822       14.5732511675
  O        39.4566573290       35.2438109837        4.0020140587
  O        19.1417508956        0.0046426575       11.9904322269
  O        41.9697795050       35.1729381453        4.0873245785
  O        21.6912916357       -0.0693302793       11.8956825841
  O        51.3649727644       18.6145661148        4.0051440058
  O        10.7508766699       18.7471511362       11.9048225214
  O        50.0838400296       16.4129768325        4.0887376416
  O         9.5241678316       16.4831055493       11.9908996854
 Zr         9.2994967921       16.0501017165        6.1768912360
 Zr        49.8364133364       16.0066534394        9.7453810943
 Zr        22.0732964320        0.0310000900        6.1883949047
 Zr        42.4608308401       35.1534810355        9.8005424142
 Zr        29.5580071731       19.1082149439        6.2955282585
 Zr        29.5636005852       19.1581402246        9.9229318392
 Zr        11.0377442907       19.0528804055        9.8277458555
 Zr        11.0445790078       19.1541960711        6.2498389632
 Zr        31.2999704323       16.1137852366        9.9962976903
 Zr        31.4089851110       16.0271348401        6.4468499196
 Zr        18.6012866762       -0.0013774154        9.7633444969
 Zr        18.5065629604       -0.0081068879        6.2138674374
 Zr        12.3015007860       16.3235956190        7.9908732051
 Zr        48.6179649631       18.8282059377        8.0073272441
 Zr        20.3169951880        2.4748771622        7.9898866657
 Zr        40.6433615872       32.6868211311        7.9785170432
 Zr        28.3156133337       16.3444220344        8.0895445780
 Zr        32.6286043017       18.8561668401        8.1228747073
  H        31.5554140068       20.7661370737       -0.2859469569
  H        29.8686598161       20.0155739196       -1.4986411364
  H        30.1835069583       15.7636784595        0.8764338432
