     573
 i =      192, E =     -4762.7846759939
  C        11.8596089368       14.0531385579        5.7415022384
  C        12.4568976511       12.8902859629        5.0232206093
  C        11.7051627843       12.1713668039        4.0815732852
  C        12.2815643924       11.1092223485        3.3891854651
  C        13.6221199084       10.7394335563        3.6170269570
  C        14.3553488079       11.4430134881        4.5904481261
  C        13.7824238253       12.5079046962        5.2820287898
  C        14.2616730416        9.6488683886        2.8435332015
  C        14.2569499002        9.6568037470        1.4218328173
  C        13.7439456998       10.7590771271        0.6680340519
  C        49.1256861119       21.2321234898        5.8794076673
  C        48.5484477222       22.4001322907        5.1526623937
  C        49.2982117247       23.0669088808        4.1710649919
  C        48.7313939501       24.1060931584        3.4378732666
  C        47.4012165795       24.5085608945        3.6671749524
  C        46.6706452670       23.8604848895        4.6814897657
  C        47.2330360361       22.8155293787        5.4108737985
  C        46.7710620721       25.5862174416        2.8697460275
  C        46.7599468850       25.5564847313        1.4479566358
  C        47.2596104203       24.4412444213        0.7044869351
  C        14.8608212758        8.5704547803        0.7085257921
  C        14.8924225267        8.5968953322        3.5201491369
  C        49.1127188982       21.2024891305       10.1446025464
  C        48.5272964813       22.3639661896       10.8721922546
  C        49.2663788311       23.0245504002       11.8652652688
  C        48.6899964803       24.0590383681       12.5968813644
  C        47.3596767896       24.4559935752       12.3585483528
  C        46.6394026011       23.8112544768       11.3348190686
  C        47.2130306815       22.7754143235       10.6029497059
  C        46.7212393177       25.5310593941       13.1495612294
  C        46.7325041368       25.5273281553       14.5712849232
  C        47.2475577868       24.4279754535       15.3277180579
  C        40.6248769715       17.1599053315       15.3396414764
  C        40.6620708419       17.1982156614       12.5306899674
  C        11.8831450344       14.0866974890       10.2856574604
  C        12.4726841539       12.9111473761       10.9901325527
  C        11.7151375062       12.1773771390       11.9157663703
  C        12.2819400061       11.0949437674       12.5840559228
  C        13.6209956722       10.7218392545       12.3525820821
  C        14.3590794683       11.4380732193       11.3923791626
  C        13.7934467411       12.5192315844       10.7198308403
  C        14.2546727690        9.6249843067       13.1228286624
  C        14.2532488628        9.6447363073       14.5446661338
  C        13.7434477414       10.7536852594       15.2917815245
  C        22.5242034453        3.2504367397        5.7570990082
  C        23.2617008243        4.3575879414        5.0743883743
  C        24.2740877899        4.0776080244        4.1434196185
  C        24.9213618235        5.1156290376        3.4752220262
  C        24.5762983929        6.4616564060        3.7139428202
  C        23.5942116966        6.7332170544        4.6847946297
  C        22.9423312257        5.6966539547        5.3520699455
  C        25.1904361128        7.5655963459        2.9312719819
  C        25.1357601283        7.5575242146        1.5088588382
  C        24.4157224868        6.5602760197        0.7762472454
  C        38.3016753745       31.9265314072        5.8516450058
  C        37.5715511337       30.8306348717        5.1502839280
  C        36.6042320175       31.1230489904        4.1767774569
  C        35.9905214757       30.0947226604        3.4661930690
  C        36.3297937901       28.7485755788        3.7061737912
  C        37.2654312276       28.4634707279        4.7183487357
  C        37.8826703671       29.4903402303        5.4281286444
  C        35.7386545010       27.6502316970        2.9077768665
  C        35.7759962837       27.6670844401        1.4861523292
  C        36.4762603112       28.6764135992        0.7525381040
  C        25.7479691481        8.6244967411        0.7742247057
  C        25.8133019651        8.6378767140        3.5865526266
  C        38.3311003456       31.9604423077       10.1606937801
  C        37.6174227369       30.8850978452       10.9106265353
  C        36.6910124343       31.1903135604       11.9197475350
  C        36.0872390784       30.1701452514       12.6535373022
  C        36.3945128671       28.8177188054       12.4022704598
  C        37.3006297235       28.5225101820       11.3649978477
  C        37.9067164190       29.5390512886       10.6330131512
  C        35.7892567553       27.7141385934       13.1852567765
  C        35.8021819041       27.6999371369       14.6078371370
  C        36.4890732825       28.6920007646       15.3758238018
  C        46.1346443564       26.6200959411       15.2813716284
  C        46.0876639929       26.5796389619       12.4734643121
  C        22.4568379221        3.2571705105       10.2652197697
  C        23.1396124705        4.3650923131       11.0022795894
  C        24.1336735360        4.0780955592       11.9518011794
  C        24.7555700479        5.1064874204       12.6566380584
  C        24.4047645251        6.4536995073       12.4355889136
  C        23.4293941524        6.7335732774       11.4591093400
  C        22.8031944521        5.7055068931       10.7544591638
  C        25.0433411081        7.5530273652       13.2038645276
  C        25.0595259461        7.5508967883       14.6274337551
  C        24.3783770623        6.5575508923       15.3996026464
  C        26.6179992443       17.8672798475        5.7825905350
  C        25.3128552718       17.9167262500        5.0582598942
  C        25.0611515458       18.9012455955        4.0893857569
  C        23.8479663226       18.9210336276        3.4040138578
  C        22.8497315395       17.9598324145        3.6641760098
  C        23.0981050358       16.9987195325        4.6625939138
  C        24.3127401092       16.9731923990        5.3458211394
  C        21.5769927236       17.9429024638        2.8995743319
  C        21.5772864747       17.9158968263        1.4769206158
  C        22.7821881425       17.7853766437        0.7169275263
  C        34.3631152370       17.1811425518        5.8675395474
  C        35.6549530622       17.1155821963        5.1300305339
  C        35.8488412930       16.1876465185        4.0945475512
  C        37.0455289525       16.1720120139        3.3816612733
  C        38.0784560588       17.0844070495        3.6782351627
  C        37.8843994305       17.9892314327        4.7403117981
  C        36.6892331604       18.0089693410        5.4536145485
  C        39.3426438971       17.1063716692        2.9058332322
  C        39.3504079643       17.1530720648        1.4840131055
  C        38.1511894958       17.3010549032        0.7180301241
  C        20.3308377412       17.9340479322        0.7679901120
  C        20.3518583474       17.9472560367        3.5815234637
  C        34.4822158948       17.2474976504       10.1847537598
  C        35.7862444990       17.1799718292       10.9055933096
  C        35.9985701554       16.2076843317       11.8945861807
  C        37.1829137627       16.1987282028       12.6256990067
  C        38.1837337393       17.1605653994       12.3864571301
  C        37.9781057580       18.1069817423       11.3654231898
  C        36.7909430505       18.1220741220       10.6381290531
  C        39.4268458617       17.1858887209       13.1872704144
  C        39.3935885622       17.1938629527       14.6079854652
  C        38.1718487520       17.3180546922       15.3415488361
  C        35.1792534911       26.6133795829       15.3083935225
  C        35.1970508541       26.6461227200       12.4987024845
  C        26.5688074033       17.8276152647       10.3284162852
  C        25.2562477484       17.8737163734       11.0334049710
  C        25.0093138643       18.8581374053       12.0020226383
  C        23.7899504985       18.8876667711       12.6719882233
  C        22.7919529801       17.9296687676       12.4028714128
  C        23.0357325861       16.9691267832       11.4042083692
  C        24.2539007643       16.9395705993       10.7287791063
  C        21.5291854875       17.9095077071       13.1762375900
  C        21.5527470711       17.8959911650       14.5981436355
  C        22.7703933326       17.7747721798       15.3405622734
  C        14.0470698458       17.8293555967       10.2889539395
  C        15.3512951352       17.8875379407       11.0139391509
  C        15.6065339166       18.8900900109       11.9627722371
  C        16.8153517871       18.9118120959       12.6558840936
  C        17.8035771047       17.9339888111       12.4226088885
  C        17.5531624402       16.9561006596       11.4412816219
  C        16.3438061728       16.9295931738       10.7497064135
  C        19.0725384731       17.9171821681       13.1919667840
  C        19.0710850004       17.9130414209       14.6145316067
  C        17.8641051619       17.8148621859       15.3757268227
  C        46.8065406317       17.2236820412       10.1633792822
  C        45.5217874148       17.1749075915       10.9204524465
  C        45.3169033810       16.2068370682       11.9156756275
  C        44.1401560017       16.2015267198       12.6606920978
  C        43.1373292803       17.1639144247       12.4316880072
  C        43.3408413182       18.1135183360       11.4118613214
  C        44.5183885817       18.1232251164       10.6687698509
  C        41.8818499947       17.1804992665       13.2175382685
  C        41.8768542688       17.1746174184       14.6397072270
  C        43.0795644562       17.2635166276       15.4083426555
  C        20.3179133083       17.9229757385       15.3228573043
  C        20.2966742625       17.9000960267       12.5099466437
  C        46.7967055247       17.1993129462        5.8602583539
  C        45.4778969710       17.1007388305        5.1692233579
  C        45.2447018279       16.1090817304        4.2037150413
  C        44.0449145475       16.0843632306        3.4971493610
  C        43.0471170105       17.0497661952        3.7356674480
  C        43.2688279285       18.0077192212        4.7427966262
  C        44.4700183590       18.0377203549        5.4468201534
  C        41.7994997884       17.0830989011        2.9376975823
  C        41.8347017881       17.1244145826        1.5165385117
  C        43.0592515945       17.2387442471        0.7850096311
  C        46.1522287412       26.6365141331        0.7261537354
  C        46.1615268390       26.6556459511        3.5357885910
  C        14.0460542235       17.8323028344        5.7090085651
  C        15.3669374648       17.9085417868        5.0192658788
  C        15.6382248963       18.9233324406        4.0892470713
  C        16.8670643976       18.9625069016        3.4343496997
  C        17.8525292390       17.9860260866        3.6834747040
  C        17.5882737452       17.0007035696        4.6522339501
  C        16.3614451883       16.9609828118        5.3106939705
  C        19.1196269046       17.9620536348        2.9142867606
  C        19.0956026972       17.9353859140        1.4927221117
  C        17.8759721334       17.8250044355        0.7520024666
  C        28.8004405181       14.0882324785       10.3935718978
  C        28.1873899808       12.9105889798       11.0735579895
  C        28.9117107433       12.1620152811       12.0135541405
  C        28.3103154447       11.0881498221       12.6650719775
  C        26.9696265837       10.7384944689       12.4035973594
  C        26.2675824643       11.4658990472       11.4255050983
  C        26.8669721271       12.5396674088       10.7710655993
  C        26.3008861800        9.6640454704       13.1747098634
  C        26.3084876632        9.6946673081       14.5961203877
  C        26.8210276499       10.8109777438       15.3298682926
  C        32.1795062855       21.2423516902       10.1505370597
  C        32.7816266372       22.4012253557       10.8731233493
  C        32.0463404752       23.0626871381       11.8691937155
  C        32.6245616773       24.0980281084       12.5976933795
  C        33.9529133554       24.4989492588       12.3529407082
  C        34.6693765268       23.8545045744       11.3269497700
  C        34.0942158701       22.8141196531       10.5995819581
  C        34.5889671318       25.5695238333       13.1545937137
  C        34.5926381090       25.5298549771       14.5761896042
  C        34.1005972168       24.4044920381       15.3106875117
  C        25.7120119944        8.6184621451       15.3287221123
  C        25.6515076600        8.6123630097       12.5149926651
  C        32.1394180068       21.1615485802        5.8762000285
  C        32.7303383816       22.3158861268        5.1387351712
  C        32.0034680299       22.9640220213        4.1275314928
  C        32.5834566223       23.9990599306        3.3973448081
  C        33.9041803527       24.4168161262        3.6570686430
  C        34.6126442689       23.7809461972        4.6951889110
  C        34.0381844849       22.7406167412        5.4216147942
  C        34.5430404595       25.5039125154        2.8774148060
  C        34.5671455080       25.4970247530        1.4548102608
  C        34.0877636337       24.3886095099        0.6875569516
  C        40.6027528797       17.1364544008        0.7843015651
  C        40.5631292624       17.0891158200        3.5937922736
  C        28.8201367632       14.1718185670        5.7299859160
  C        28.2348970970       13.0093079409        4.9939322959
  C        28.9587689482       12.3147806447        4.0120371521
  C        28.3843833919       11.2281951689        3.3512495750
  C        27.0701435707       10.8054090979        3.6433377055
  C        26.3666009205       11.4891818463        4.6532830961
  C        26.9371448000       12.5739047689        5.3149451422
  C        26.4178149369        9.6992656779        2.8950367696
  C        26.3706605959        9.7114342545        1.4729360709
  C        26.8483303239       10.8202374528        0.7053513482
  C        18.1357290153        3.1810686252       10.3169694614
  C        17.4066282721        4.2783759472       11.0155402701
  C        16.3905895822        4.0001264398       11.9427692830
  C        15.7429650023        5.0401917686       12.6062140573
  C        16.0952507130        6.3838870996       12.3668532812
  C        17.0849335868        6.6532675164       11.4033459890
  C        17.7339542178        5.6158761964       10.7383021361
  C        15.4709782758        7.4916048077       13.1299273141
  C        15.4860678017        7.4906364367       14.5516457610
  C        16.1873940886        6.4968295529       15.3047826454
  C        42.9459760211       31.8595762393       10.0729571302
  C        43.6464104741       30.7718592623       10.8167583228
  C        44.5919104676       31.0929846305       11.8029310032
  C        45.1976081391       30.0873020374       12.5504418622
  C        44.8710658691       28.7342707623       12.3354780072
  C        43.9454194772       28.4201127713       11.3220342337
  C        43.3366363426       29.4253868368       10.5741511990
  C        45.4884534336       27.6548319084       13.1386636029
  C        45.4922833484       27.6803712124       14.5603614440
  C        44.8054392242       28.6886214416       15.3069393988
  C        14.8571591412        8.5630991643       15.2640973672
  C        14.8759104190        8.5635507573       12.4514049662
  C        42.9465415683       31.9618879087        5.8089204931
  C        43.6917150221       30.8857120564        5.0953865307
  C        44.6561202554       31.1913923565        4.1228181661
  C        45.2774019408       30.1716543721        3.4050601876
  C        44.9536798918       28.8213522886        3.6429373794
  C        44.0204244247       28.5239459578        4.6540212732
  C        43.3924264868       29.5408310844        5.3662525720
  C        45.5623638574       27.7237133235        2.8577053588
  C        45.5326268916       27.7169334852        1.4363968281
  C        44.8265964696       28.7072881193        0.6833366486
  C        35.1658813801       26.5964988360        0.7538749641
  C        35.1407332625       26.5682968857        3.5645490473
  C        18.1489558770        3.2469901385        5.7066273573
  C        17.4303150019        4.3437559519        4.9975430717
  C        16.4152045419        4.0524168380        4.0738445512
  C        15.7669261099        5.0829799049        3.3983651990
  C        16.1216046214        6.4282443001        3.6209729365
  C        17.1128548167        6.7116944800        4.5783582893
  C        17.7605332025        5.6828547082        5.2582200757
  C        15.4911017490        7.5239142089        2.8485159761
  C        15.4969350664        7.5072649207        1.4273803269
  C        16.1935214135        6.5055029259        0.6806038870
  H        10.6730990224       12.4655767101        3.9043369152
  H        11.6953528169       10.5507777552        2.6625602622
  H        15.3924485435       11.1685954069        4.7720470161
  H        14.3519648303       13.0712811980        6.0172967479
  H        13.3771042487       11.6312478293        1.2013889845
  H        50.3206565751       22.7463215245        3.9858160758
  H        49.3177710162       24.6208136572        2.6798418200
  H        45.6415097198       24.1620192885        4.8654092557
  H        46.6623310986       22.2912980128        6.1738784719
  H        47.6279806550       23.5748066920        1.2461835177
  H        14.8728521132        8.5881508281        4.6084576930
  H        50.2864102048       22.7016550718       12.0602015043
  H        49.2684262524       24.5743092189       13.3604890233
  H        45.6100815052       24.1086913923       11.1456027119
  H        46.6523880496       22.2534021431        9.8311573044
  H        47.6063837259       23.5508716383       14.7968181911
  H        40.6751869374       17.1650548315       11.4429697482
  H        48.6835528279       14.0972330479        7.8004472859
  H        10.6814725119       12.4659384530       12.0928695319
  H        11.6901498205       10.5240945679       13.2963906759
  H        15.3947837947       11.1608958330       11.2069052120
  H        14.3659372556       13.0892154093        9.9918967399
  H        13.3768251467       11.6223983906       14.7531605830
  H        47.9305371439       14.2185800464        9.7126158432
  H        47.7797025648       14.3587879155        6.4862198549
  H        49.0822356810       18.5525660776       10.8647669426
  H        10.4176723794       14.1337807505        8.0003225036
  H        24.5317977656        3.0385496747        3.9501206073
  H        25.7020738548        4.8913510881        2.7514085701
  H        23.3160522723        7.7667541324        4.8808828940
  H        22.1626553938        5.9041822841        6.0811884441
  H        23.8634890611        5.8049617069        1.3277202015
  H        36.3583626180       32.1635985434        3.9780450605
  H        35.2412248665       30.3255906193        2.7121363000
  H        37.5351906888       27.4273247969        4.9120446467
  H        38.6314215079       29.2777360347        6.1874769588
  H        37.0343887408       29.4290212062        1.3018016601
  H        25.8691550316        8.6227343931        4.6737310646
  H        36.4634943502       32.2337190319       12.1263746886
  H        35.3629405897       30.4145900722       13.4274631838
  H        37.5517107247       27.4832128075       11.1634976150
  H        38.6277057245       29.3140929872        9.8508407281
  H        37.0581648265       29.4560301018       14.8538917154
  H        46.1094132436       26.5871179332       11.3854342457
  H        44.6683323140       35.1162548405        7.8138118535
  H        24.4124710142        3.0399161366       12.1176376924
  H        25.5326978530        4.8746194210       13.3818065138
  H        23.1443130689        7.7681613746       11.2790683032
  H        22.0367538904        5.9213393847       10.0135844974
  H        23.7961898629        5.8011558272       14.8810295369
  H        44.9541398070       34.3909492097        9.6954823655
  H        44.9010912682       34.2067272256        6.4904352038
  H        40.6668823713       33.2099500689       10.8535137605
  H        23.1511910062        1.9585107823        8.0077142143
  H        25.8266870882       19.6465763620        3.8862103454
  H        23.6593940114       19.6906387506        2.6585624327
  H        22.3398162169       16.2472907235        4.8731986813
  H        24.5139641252       16.2168093560        6.1007572741
  H        23.7229228945       17.6626246325        1.2456447971
  H        35.0479387561       15.4924104377        3.8532353821
  H        37.1933417160       15.4432677318        2.5877766272
  H        38.6710334959       18.7026930042        4.9769113212
  H        36.5267491240       18.7229572914        6.2576191694
  H        37.2084246366       17.4307008998        1.2415627489
  H        20.3581575673       17.9912882686        4.6692430731
  H        35.2163404518       15.4767145402       12.0864016394
  H        37.3467522919       15.4424944980       13.3902828437
  H        38.7446990946       18.8557153400       11.1766682087
  H        36.6091093644       18.8719456997        9.8718767950
  H        37.2454762493       17.4588680418       14.7921588349
  H        35.1623465256       26.6798011053       11.4114048003
  H        28.5212766249       21.0742922251        7.9728423738
  H        25.7868827783       19.5869425574       12.2185364421
  H        23.5982245440       19.6561971120       13.4175316236
  H        22.2741641788       16.2218818328       11.1908670664
  H        24.4575403728       16.1862486674        9.9716124390
  H        23.7022381356       17.6443267546       14.7983426882
  H        28.9662458101       21.7301045130        9.7813876809
  H        29.1475523045       21.7524964708        6.6159485930
  H        32.0757100542       18.5774475254       11.0076479598
  H        27.4093789852       19.0755894132        8.0774543562
  H        14.8471358361       19.6479719273       12.1417798946
  H        17.0093181731       19.6955305342       13.3850617393
  H        18.3057205832       16.1934147810       11.2517251079
  H        16.1393948850       16.1610772089       10.0080388006
  H        16.9215575951       17.6992259460       14.8485309610
  H        46.0966536437       15.4710487167       12.0981751387
  H        43.9820116476       15.4413808500       13.4225795280
  H        42.5758263679       18.8657430835       11.2309283289
  H        44.6909759863       18.8706806199        9.8979775158
  H        44.0253108165       17.3825753716       14.8871651939
  H        20.2905679411       17.9336828929       11.4219264271
  H        46.0207618447       15.3729004046        4.0072096486
  H        43.8697689180       15.3159007941        2.7473329164
  H        42.5042713133       18.7573814760        4.9361090621
  H        44.6611178046       18.7977939499        6.2006770905
  H        43.9897280276       17.3378579485        1.3363150354
  H        46.1986026649       26.6823860205        4.6232227380
  H        52.7412440352       21.0625470761        8.1944679145
  H        14.8761633889       19.6751814561        3.8963015590
  H        17.0764535060       19.7523218736        2.7161215963
  H        18.3406577065       16.2406555682        4.8525838197
  H        16.1422818423       16.1871581083        6.0423721751
  H        16.9423849325       17.7169502032        1.2958471576
  H        52.3226186760       21.6733394843        6.2942074088
  H        52.0134977801       21.7023554601        9.4954990709
  H        49.0691755333       18.6060734032        5.2028106170
  H        13.2478548040       19.0157560831        7.9775440875
  H        29.9430106351       12.4376526352       12.2223482750
  H        28.8738979775       10.5089283810       13.3932988583
  H        25.2316981129       11.2076522827       11.2152454168
  H        26.3199151328       13.1237109424       10.0350553047
  H        27.1672656742       11.6816912348       14.7812270698
  H        31.0267961241       22.7387687969       12.0664144626
  H        32.0492342180       24.6122182632       13.3645847393
  H        35.6972355515       24.1536649471       11.1320709751
  H        34.6541159708       22.2914732225        9.8274812183
  H        33.7577458641       23.5338917662       14.7588300863
  H        25.6662984959        8.5881448236       11.4267639479
  H        30.9883945813       22.6340778028        3.9181542401
  H        32.0115321286       24.5023870449        2.6208143318
  H        35.6347887779       24.0904711329        4.9032924475
  H        34.5933420967       22.2295637275        6.2047825854
  H        33.7353958947       23.5050585173        1.2125541010
  H        40.5495059912       17.0270409068        4.6803971485
  H        32.5243184671       14.1274785530        8.3707404496
  H        29.9726154803       12.6350623948        3.7811771021
  H        28.9571343980       10.6903827158        2.5987295961
  H        25.3498156118       11.1823524629        4.8898683340
  H        26.3850402630       13.1117646620        6.0815437508
  H        27.2140838999       11.6991655718        1.2277909582
  H        33.2816213440       14.1383052716        6.4235056422
  H        33.4049701028       14.4522553237        9.6775814077
  H        32.1726825027       18.4976822407        5.1651395504
  H        30.2209947807       14.1768809101        8.1227784546
  H        16.1181500382        2.9636936363       12.1289900068
  H        14.9532588373        4.8209365038       13.3216317386
  H        17.3677181065        7.6860875802       11.2104394020
  H        18.5162124093        5.8184854045       10.0106812760
  H        16.7539069241        5.7394654624       14.7712704343
  H        44.8282826055       32.1400323312       11.9772221895
  H        45.9374874967       30.3409679481       13.3064038525
  H        43.6828628705       27.3780458730       11.1517029762
  H        42.6001926900       29.1901447992        9.8092962212
  H        44.2303743185       29.4365778805       14.7685882693
  H        14.8523529204        8.5470257011       11.3631783468
  H        44.8997182406       32.2340268502        3.9311690628
  H        46.0242255588       30.4127969921        2.6517114283
  H        43.7636257751       27.4842351932        4.8459047770
  H        42.6462111778       29.3181316565        6.1249961039
  H        44.2683209447       29.4704059973        1.2178321542
  H        35.0924281006       26.5804309811        4.6518201910
  H        36.6052516375       35.1338537774        8.1810471047
  H        16.1440579396        3.0128506929        3.9041840582
  H        14.9746459586        4.8561001143        2.6882440407
  H        17.3963990362        7.7471655342        4.7551771165
  H        18.5434164898        5.8934419642        5.9829372588
  H        16.7648809067        5.7551584999        1.2189714846
  H        36.2785926735       34.4825714283        6.2726667038
  H        36.3812104982       34.2090371128        9.4999230344
  H        40.5804122794       33.2032548262        5.1535600976
  H        17.4718964145        1.9474484020        7.9740569237
  H        28.9001281292       19.0253645473       12.4155749642
  H        28.9870482007       19.1348375692        3.5814307439
  H        31.2861504156       15.5789009874       12.5933893101
  H        28.0002719125       17.4950010338       14.8737979011
  H        29.6752548031       15.2794988321       14.7708241968
  H        31.8406295182       19.1806228473       -0.4637012702
  H        32.6071490647       17.9832087054        1.2463426605
  H        28.4109964211       17.7789547518        1.2377215219
  H        32.8696530071       17.5749249829       14.2864854400
  H        18.8532085185        0.8687354092       12.3353862352
  H        40.5275928783       35.2289515582        3.9517950772
  H        42.3259243517       34.4204004933        3.5899782078
  H        22.0878313893        0.6920203398       12.3512915466
  H        11.5969652596       18.7121622671       12.3819335456
  H        52.2645175739       18.4338468318        3.6742700657
  H        49.2523833385       16.4804079024        3.5937124342
  H        10.1498419942       15.7984186943       12.2926644913
  H        50.8509535868       17.6910827710        3.9527639349
  H        10.0455654029       17.3946054022       12.0515609656
  H        20.2149300842        0.0023740400       12.0419813462
  H        39.1834501396       36.1243402221        3.6865536719
 Ni        30.5212326766       17.8182994874        2.4959782068
 Ni        31.2789865038       16.4572458174        0.0839420883
 Ni        29.5886970521       19.1382503110       -0.5811350279
 Ni        30.3939317837       17.5501083658       13.4904873682
  O        10.6504835837       14.3647189195        5.4854296507
  O        12.6133338284       14.6573148309        6.5837988577
  O        49.1472508980       16.8420902055        7.9861710397
  O        50.3492515602       20.9362257280        5.6485661660
  O        48.3472995672       20.5913119604        6.6655475284
  O        11.0528546654       17.0527114130        6.5003454350
  O        50.3207801651       20.8813340114       10.4066540562
  O        48.3465257421       20.5860542960        9.3264548066
  O        49.5438240832       18.2478783212       10.0668633162
  O        12.3590788126       18.6246029317        7.9996780560
  O        48.6934828354       14.1490255925        6.7514243592
  O         8.2094093082       14.2103544069        9.3223531004
  O        10.7353026737       14.5067405376       10.6642679107
  O        12.5718445152       14.5828141802        9.3285414141
  O        22.8466372185        2.0470684387        5.4858654560
  O        21.6095740097        3.5956416364        6.5865908580
  O        42.0583163559       34.1378963797        7.9785617919
  O        37.9812325728       33.1339552533        5.5719102406
  O        39.2195221596       31.5762974168        6.6677137809
  O        20.3087417784        1.0403521887        6.5022643349
  O        38.0240758109       33.1842181562       10.4161904681
  O        39.2186696468       31.5831664331        9.3272939192
  O        40.6522678173       33.7695207064       10.0601237615
  O        18.2563604824        1.3759433858        7.9966856673
  O        44.6221693548       35.1006516694        6.7586697288
  O        24.2053032372        0.0001588163        9.3207362221
  O        22.7531157954        2.0582598321       10.5848486706
  O        21.6254484195        3.5974301526        9.3454356198
  O        27.5001278206       18.7550491942        5.4946819927
  O        26.7597336712       16.9430459651        6.6552051249
  O        30.6801827342       19.3444185081        8.0457912143
  O        33.4542049124       16.3186375180        5.5698317573
  O        34.2332368274       18.0998460654        6.7402802076
  O        29.5788822521       17.0585885832        6.5900966207
  O        33.6255118244       16.3315642145       10.4157028077
  O        34.3065242311       18.2485298506        9.4083970011
  O        31.6565986652       18.3177475170       10.1697336086
  O        30.3228778200       15.1427535241        8.1511083747
  O        28.5608320768       21.0283238059        6.8974560319
  O        28.5143038400       20.9549718876        9.4080834937
  O        27.4563133793       18.6786557659       10.6582166553
  O        26.6935120507       16.9297992490        9.4133493708
  O        13.1484486008       18.6930356749       10.5873546916
  O        13.9194437025       16.9164524818        9.4052514973
  O        50.5961729208       19.3492510123        8.0192597063
  O        47.6819173449       16.3280585297       10.4180195478
  O        46.9517694098       18.1765977103        9.3244004774
  O        11.0695556862       17.0155390151        9.4894058981
  O        47.6882800974       16.3207033107        5.5756479200
  O        46.9559936272       18.1754817368        6.6642200896
  O        49.5709336713       18.3170796190        5.9809451597
  O        10.3189789411       15.0994985468        7.9968868158
  O        52.6706977573       21.0278648113        9.2416641230
  O        12.1466104920       20.8910317323        6.6731290050
  O        13.1080576537       18.6137201442        5.3257313133
  O        13.9572821987       16.9871133487        6.6653211534
  O        29.9838729513       14.4407090716       10.7417560639
  O        28.0875309513       14.6527338064        9.4925104271
  O        32.1395696091       16.8449056953        8.1476752407
  O        30.9678488541       20.9533954160       10.4086484122
  O        32.9472642391       20.6042311504        9.3388560866
  O        29.5687583301       17.0737362705        9.5790546794
  O        30.9122041079       20.8751755844        5.6582621919
  O        32.9158793781       20.5146146652        6.6608277153
  O        31.6387210066       18.1762715184        5.9090707213
  O        28.2947353137       18.6761448220        8.0744405496
  O        32.4958798880       14.2125011581        9.4124089999
  O        32.4074097542       14.2076515882        6.8401360168
  O        29.9945356582       14.5879887090        5.4113320047
  O        28.0974951011       14.6532459480        6.6711841861
  O        17.8894031057        1.9666402681       10.6627007080
  O        18.9565566186        3.5270318094        9.4077181490
  O        39.1685732366       34.1387322594        7.9971714173
  O        43.2802025212       33.0590187779       10.3317094674
  O        42.0345443876       31.5064704215        9.2416453227
  O        20.3180908215        1.0374686910        9.4794561446
  O        43.2761456139       33.1828685422        5.5749236668
  O        42.0053169507       31.5842251171        6.5829512014
  O        40.5792844797       33.7757525842        5.9358191895
  O        22.3678402807        1.3855724454        7.9975947591
  O        36.6729510225       35.0996976890        9.2334877706
  O        16.4458997534        0.0640451060        6.6680680439
  O        17.9365822228        2.0433404077        5.3265133087
  O        18.9196704539        3.5930979870        6.6659291992
  O        29.7780044056       18.7599170174        4.0160688736
  O        29.7771085137       18.9014633967       11.9969929870
  O        31.3853752585       16.4018816687       12.0742812362
  O        32.1023791420       17.2224104146        1.5885373386
  O        29.1043513341       18.4598435149        1.2603596592
  O        30.4972233606       15.7552521024       14.5702531784
  O        32.0637942450       17.8660989893       14.7468446048
  O        31.3501123462       19.8608141799        0.1602223730
  O        28.4250601924       18.1743117149       14.3212353000
  O        39.4566939058       35.2436842395        4.0020072387
  O        19.1414495011        0.0044610523       11.9904096753
  O        41.9696937030       35.1729578662        4.0872641917
  O        21.6911450584       -0.0692984611       11.8956776709
  O        51.3652645322       18.6145348378        4.0052211069
  O        10.7510025665       18.7471292733       11.9046832355
  O        50.0840323335       16.4129977489        4.0887227856
  O         9.5239093153       16.4831252337       11.9909494434
 Zr         9.3001710988       16.0498198533        6.1770960900
 Zr        49.8370837329       16.0063200558        9.7450602870
 Zr        22.0736610447        0.0316142498        6.1882495859
 Zr        42.4610896800       35.1540464108        9.8007046998
 Zr        29.6012728211       19.0764613647        6.2523995812
 Zr        29.5736532674       19.1744725457        9.9019724443
 Zr        11.0386041876       19.0523048975        9.8277042818
 Zr        11.0455972986       19.1537210816        6.2495152571
 Zr        31.3217017450       16.1093959948        9.9884688954
 Zr        31.4186356816       16.0162133221        6.4530498656
 Zr        18.6016128014       -0.0008293552        9.7632547814
 Zr        18.5068043659       -0.0076179723        6.2139302884
 Zr        12.3031331955       16.3238106232        7.9905643487
 Zr        48.6189472620       18.8283443191        8.0070526992
 Zr        20.3171813858        2.4754780372        7.9897522820
 Zr        40.6440783515       32.6875568556        7.9783647235
 Zr        28.3364187662       16.3557211674        8.0936004605
 Zr        32.6271078806       18.8460642305        8.0891071790
  H        31.4864917473       20.7343423465       -0.2456386788
  H        29.8786313006       19.9071674863       -1.7768766278
  H        30.6424142844       15.4941830827        0.9586277001
