     571
 i =      455, E =     -4761.6163027042
  C        11.8588573994       14.0535449211        5.7415574231
  C        12.4563738292       12.8905860269        5.0232503299
  C        11.7046418779       12.1716613577        4.0816289011
  C        12.2810011625       11.1094341089        3.3892992496
  C        13.6215821092       10.7396628477        3.6169884845
  C        14.3547935569       11.4432815161        4.5903797945
  C        13.7819394812       12.5082838237        5.2818781699
  C        14.2611157581        9.6489975053        2.8436063605
  C        14.2563806220        9.6568946069        1.4219086040
  C        13.7432094557       10.7590243448        0.6680157021
  C        49.1268102967       21.2332004127        5.8797470221
  C        48.5500278969       22.4011426702        5.1525908353
  C        49.3000616836       23.0684928697        4.1716343096
  C        48.7331257632       24.1076361970        3.4384310368
  C        47.4025714386       24.5092121324        3.6670444492
  C        46.6715845502       23.8602851461        4.6804891989
  C        47.2340600216       22.8153824611        5.4098319003
  C        46.7723067171       25.5869077597        2.8697935611
  C        46.7612294036       25.5572791144        1.4480361053
  C        47.2611845556       24.4422009484        0.7045345370
  C        14.8603616497        8.5705879146        0.7086376667
  C        14.8918270879        8.5970146562        3.5202530251
  C        49.1133538180       21.2035110379       10.1454104699
  C        48.5279856258       22.3648976917       10.8726115597
  C        49.2672375346       23.0256954281       11.8654381911
  C        48.6908831103       24.0602477046       12.5968945036
  C        47.3604349907       24.4569053799       12.3587125796
  C        46.6399765325       23.8118891802       11.3353023249
  C        47.2135473446       22.7759716708       10.6035486433
  C        46.7219531299       25.5318689856       13.1497190386
  C        46.7335382147       25.5281642274       14.5714179845
  C        47.2489565933       24.4289254583       15.3277736805
  C        40.6354513403       17.1284238254       15.3289827836
  C        40.6515762889       17.1627466360       12.5203440266
  C        11.8829674810       14.0865154156       10.2854861247
  C        12.4723032476       12.9107060157       10.9897465266
  C        11.7147268753       12.1773782439       11.9156988823
  C        12.2813240652       11.0949385697       12.5841406770
  C        13.6202130907       10.7213880189       12.3524735271
  C        14.3582664572       11.4370639857       11.3918267780
  C        13.7928163329       12.5182145774       10.7191204000
  C        14.2537819953        9.6245822757       13.1228363178
  C        14.2525485427        9.6445706631       14.5446716643
  C        13.7426396869       10.7534888897       15.2917621520
  C        22.5097400231        3.2434842096        5.7527014740
  C        23.2205250348        4.3485621669        5.0507643702
  C        24.2148644848        4.0684844082        4.1020580327
  C        24.8385884726        5.1083231167        3.4180517049
  C        24.4830910151        6.4494084283        3.6633126865
  C        23.5165711249        6.7210659535        4.6485491256
  C        22.8881750300        5.6830370600        5.3308938413
  C        25.0885853750        7.5554911382        2.8885302970
  C        25.0644393015        7.5483120006        1.4672750865
  C        24.3602415850        6.5513468963        0.7199569440
  C        38.3019817892       31.9285461140        5.8512768657
  C        37.5712621384       30.8354643141        5.1477739769
  C        36.6004560993       31.1327575297        4.1792595486
  C        35.9839869249       30.1078836030        3.4666835126
  C        36.3249367026       28.7610678241        3.6995716066
  C        37.2654043114       28.4709211409        4.7057258073
  C        37.8848762553       29.4943778685        5.4181260557
  C        35.7282271374       27.6664568055        2.9015668267
  C        35.7550275733       27.6877308800        1.4800844450
  C        36.4520106743       28.6981270746        0.7450122196
  C        25.6931031009        8.6158730648        0.7491025323
  C        25.6843711143        8.6296545515        3.5612082528
  C        38.3299101377       31.9615133382       10.1591671029
  C        37.6114672327       30.8887365029       10.9067579485
  C        36.6794860666       31.1985348864       11.9092999540
  C        36.0698964975       30.1814955982       12.6420267325
  C        36.3774993249       28.8283051324       12.3961195387
  C        37.2890283620       28.5283558733       11.3650758419
  C        37.9005969851       29.5418763553       10.6337026339
  C        35.7673671876       27.7287366744       13.1797508994
  C        35.7744837598       27.7201157029       14.6021316789
  C        36.4615638086       28.7133959189       15.3683590675
  C        46.1354987367       26.6207851103       15.2815450881
  C        46.0880482155       26.5802396215       12.4736491968
  C        22.4603605718        3.2558451095       10.2571075025
  C        23.1534027597        4.3653560560       10.9790700080
  C        24.1564824865        4.0808332907       11.9191732176
  C        24.7832379487        5.1122107360       12.6141615721
  C        24.4268757715        6.4573959173       12.3915752527
  C        23.4470469696        6.7352703159       11.4198057686
  C        22.8156131484        5.7041016939       10.7252919622
  C        25.0566292388        7.5554266639       13.1662937680
  C        25.0486063555        7.5477654565       14.5888199578
  C        24.3509448677        6.5522010362       15.3432281375
  C        26.6111131879       17.8587780749        5.7881286406
  C        25.3020800396       17.9088928389        5.0693991740
  C        25.0343083670       18.9183194912        4.1308148860
  C        23.8240984040       18.9361811467        3.4400978345
  C        22.8430966199       17.9501018771        3.6687322609
  C        23.1047613976       16.9651520196        4.6401056183
  C        24.3181142188       16.9403289974        5.3266162522
  C        21.5719059513       17.9367004028        2.9007039257
  C        21.5746714381       17.9209610446        1.4781521162
  C        22.7819494851       17.8035034867        0.7196894364
  C        34.4997836945       17.2115008362        6.0058011213
  C        35.7852302298       17.1545541818        5.2510646674
  C        35.9679255383       16.1798382285        4.2576774969
  C        37.1305443830       16.1674193348        3.4916897576
  C        38.1418563343       17.1238740924        3.7050195408
  C        37.9612318953       18.0786403707        4.7241821090
  C        36.7935652100       18.1012157676        5.4827750177
  C        39.3874706057       17.1272448680        2.9053861058
  C        39.3799019125       17.1383355675        1.4839627417
  C        38.1711290407       17.2528470442        0.7280865887
  C        20.3292385824       17.9375847712        0.7672908375
  C        20.3464032670       17.9357836052        3.5809975541
  C        34.4753397466       17.2374170553       10.1954265872
  C        35.7756797497       17.1634144265       10.9185410665
  C        35.9908290389       16.1771776608       11.8925669243
  C        37.1771059116       16.1585529068       12.6200184378
  C        38.1750049309       17.1256587898       12.3919977077
  C        37.9661722369       18.0869297938       11.3858991981
  C        36.7780920463       18.1106033486       10.6612455199
  C        39.4215830704       17.1448570467       13.1866706617
  C        39.3976856347       17.1499238026       14.6075628879
  C        38.1796812919       17.2574793385       15.3509986475
  C        35.1486677423       26.6362376910       15.3039207922
  C        35.1793060937       26.6579946622       12.4942749008
  C        26.5740739186       17.8256874627       10.3214322221
  C        25.2599068518       17.8673986206       11.0318394607
  C        24.9976716494       18.8727314934       11.9746848328
  C        23.7800704877       18.9006643449       12.6489760845
  C        22.7956037149       17.9223361259       12.4047702889
  C        23.0530039701       16.9404708689       11.4309123403
  C        24.2712428567       16.9111848294       10.7543163146
  C        21.5313924500       17.9072888122       13.1770923640
  C        21.5535890480       17.9030757064       14.5988333250
  C        22.7713527968       17.7936178447       15.3431235855
  C        14.0473786862       17.8292235641       10.2885594231
  C        15.3525321878       17.8871538888       11.0128773522
  C        15.6098875143       18.8910966721       11.9595840935
  C        16.8192839558       18.9124337933       12.6518614953
  C        17.8059892233       17.9327275131       12.4198740686
  C        17.5535742314       16.9533439906       11.4406075461
  C        16.3436168612       16.9274031776       10.7498764423
  C        19.0747724873       17.9158546440       13.1897625209
  C        19.0719517266       17.9150097101       14.6122842985
  C        17.8639951292       17.8161805564       15.3720394702
  C        46.8057762188       17.2200792120       10.1601771720
  C        45.5176516289       17.1622393134       10.9088418811
  C        45.3132568714       16.1890361331       11.8991418874
  C        44.1333717709       16.1755455223       12.6381061984
  C        43.1281167258       17.1351723850       12.4084426638
  C        43.3299416845       18.0881336643       11.3918544377
  C        44.5106472553       18.1057684171       10.6540665837
  C        41.8759276257       17.1482727441       13.1980350162
  C        41.8819923743       17.1464596130       14.6196795044
  C        43.0914647815       17.2441213734       15.3768343163
  C        20.3179378849       17.9280072302       15.3221385249
  C        20.2999084919       17.8943532109       12.5092246643
  C        46.7879958350       17.2306197958        5.8915212153
  C        45.4856380551       17.1250244687        5.1784720815
  C        45.2695511416       16.1292427405        4.2143265019
  C        44.0826125149       16.1051858996        3.4873552315
  C        43.0849501673       17.0735461765        3.7096917208
  C        43.2907753697       18.0380807666        4.7132545488
  C        44.4790540839       18.0690208191        5.4347392846
  C        41.8403125630       17.0985657937        2.9137497470
  C        41.8641444330       17.1186722988        1.4938277846
  C        43.0830170221       17.2282079324        0.7532435819
  C        46.1532363918       26.6371779190        0.7262994069
  C        46.1623784033       26.6560227722        3.5359337394
  C        14.0446711755       17.8313377498        5.7086527236
  C        15.3645879373       17.9052032985        5.0170931774
  C        15.6369515817       18.9210227693        4.0887536403
  C        16.8651915058       18.9582796803        3.4328512614
  C        17.8480145098       17.9787787995        3.6798157789
  C        17.5823604601       16.9916194545        4.6461299769
  C        16.3561457570       16.9538434780        5.3055246827
  C        19.1153153479       17.9554106391        2.9118336458
  C        19.0931444395       17.9345689891        1.4904108026
  C        17.8742940337       17.8248310060        0.7482436016
  C        28.8081421528       14.0934452860       10.3926872272
  C        28.1908413318       12.9229693367       11.0828224281
  C        28.9201905009       12.1691524132       12.0139534024
  C        28.3212722348       11.0931352210       12.6642511782
  C        26.9793807887       10.7477580456       12.4067458824
  C        26.2704757001       11.4830958836       11.4401730409
  C        26.8673085273       12.5593087072       10.7882837039
  C        26.3118359178        9.6659458877       13.1664358675
  C        26.3039059991        9.6882855720       14.5874203270
  C        26.8193377762       10.7947781650       15.3347624646
  C        32.1809673589       21.2443917480       10.1478426160
  C        32.7795759919       22.4048867188       10.8715409630
  C        32.0314056789       23.0820488973       11.8467527835
  C        32.6025612181       24.1210472364       12.5753797838
  C        33.9371730673       24.5106211097       12.3498614440
  C        34.6679776956       23.8510614069       11.3438840475
  C        34.0993372030       22.8064821715       10.6172060198
  C        34.5658322071       25.5856591272       13.1513450846
  C        34.5596231050       25.5531065992       14.5729555014
  C        34.0559149425       24.4336529164       15.3083388024
  C        25.6892476779        8.6122541090       15.3045665536
  C        25.6721485021        8.6183222840       12.4914850929
  C        32.1217091487       21.1930479969        5.8907955098
  C        32.7227810988       22.3456838303        5.1542292098
  C        31.9868724855       23.0061078164        4.1571421873
  C        32.5668094155       24.0345785206        3.4179932681
  C        33.8964875659       24.4352259621        3.6572719052
  C        34.6154258341       23.7865996346        4.6799819299
  C        34.0409079991       22.7505347713        5.4138036034
  C        34.5306285498       25.5223067676        2.8741969826
  C        34.5407347961       25.5210162632        1.4516802786
  C        34.0466884074       24.4188408039        0.6851860333
  C        40.6257778403       17.1181057168        0.7730638515
  C        40.6120871296       17.1222888220        3.5814694443
  C        28.7333103939       14.0584133478        5.8220074380
  C        28.1241969514       12.9113276255        5.0859156031
  C        28.8717752891       12.1870624009        4.1445278655
  C        28.2888671936       11.1351986635        3.4419435792
  C        26.9435850938       10.7777786097        3.6604153143
  C        26.2128503875       11.4859493107        4.6325759892
  C        26.7933002470       12.5408408031        5.3341387255
  C        26.3024011084        9.6887283096        2.8850873682
  C        26.3014755444        9.6997080546        1.4636147638
  C        26.8170165986       10.8011725200        0.7108838865
  C        18.1352996725        3.1809789083       10.3172097506
  C        17.4059979792        4.2781678410       11.0157988457
  C        16.3903664934        3.9998299603       11.9434257451
  C        15.7426491489        5.0398246974       12.6068904132
  C        16.0944692406        6.3835517954       12.3670775846
  C        17.0837648209        6.6530530812       11.4032172326
  C        17.7328463333        5.6156965185       10.7381934261
  C        15.4702136839        7.4912494192       13.1301534060
  C        15.4855056820        7.4905546406       14.5518604006
  C        16.1871360903        6.4969720991       15.3050046761
  C        42.9459803585       31.8595395282       10.0729289150
  C        43.6463436374       30.7719031802       10.8168723111
  C        44.5916610628       31.0932538092       11.8031461415
  C        45.1973405671       30.0877115423       12.5508287385
  C        44.8712151134       28.7346115280       12.3357188391
  C        43.9456552289       28.4202549067       11.3222626899
  C        43.3368610669       29.4253823113       10.5741985752
  C        45.4887451383       27.6553127265       13.1389263331
  C        45.4927969892       27.6809047456       14.5606180632
  C        44.8056175809       28.6888821156       15.3072493409
  C        14.8565422769        8.5630525115       15.2642117548
  C        14.8749565457        8.5630305570       12.4515537800
  C        42.9464409648       31.9615152376        5.8090098709
  C        43.6917107371       30.8853974237        5.0956106809
  C        44.6560113906       31.1913190548        4.1230185122
  C        45.2775205024       30.1717267185        3.4053038829
  C        44.9540498764       28.8213760442        3.6431870115
  C        44.0208966667       28.5237226288        4.6542827865
  C        43.3926510187       29.5404774731        5.3664805550
  C        45.5630132591       27.7239927791        2.8578900102
  C        45.5332251943       27.7173064520        1.4365945827
  C        44.8268508586       28.7075002508        0.6836432166
  C        35.1389847254       26.6196175060        0.7493202569
  C        35.1358628927       26.5827019536        3.5598733454
  C        18.1484837328        3.2469755236        5.7065883119
  C        17.4299848491        4.3437703794        4.9972388036
  C        16.4148326680        4.0525136393        4.0735976408
  C        15.7665486362        5.0831606482        3.3982230625
  C        16.1211196220        6.4284023577        3.6210810432
  C        17.1124487619        6.7117616585        4.5783985744
  C        17.7600937506        5.6828400289        5.2581633512
  C        15.4906943296        7.5241211629        2.8486379603
  C        15.4965313296        7.5074506587        1.4275104075
  C        16.1933865829        6.5058101245        0.6808164299
  H        10.6724873893       12.4657550556        3.9046969363
  H        11.6946829830       10.5509039029        2.6628231445
  H        15.3918496270       11.1687346538        4.7720396965
  H        14.3514158595       13.0715603676        6.0172636528
  H        13.3761647358       11.6311268341        1.2013400855
  H        50.3227909783       22.7484802762        3.9869524970
  H        49.3196195411       24.6229488327        2.6808899362
  H        45.6420644274       24.1609960050        4.8636095318
  H        46.6630590606       22.2900719593        6.1718877000
  H        47.6296970595       23.5758185285        1.2462298557
  H        14.8721781710        8.5883020378        4.6085607740
  H        50.2873297208       22.7029261805       12.0602496624
  H        49.2692891349       24.5757752080       13.3603396982
  H        45.6105248504       24.1090238029       11.1463319026
  H        46.6527092480       22.2536819032        9.8320828085
  H        47.6077407894       23.5518210116       14.7968515233
  H        40.6559917240       17.1320345083       11.4324777197
  H        48.6871229175       14.0947915601        7.7999990847
  H        10.6811965334       12.4663427121       12.0929427148
  H        11.6894843731       10.5244351768       13.2967098532
  H        15.3937815418       11.1593556366       11.2060987229
  H        14.3652313623       13.0877462151        9.9907756053
  H        13.3757852087       11.6220783153       14.7531045276
  H        47.9301230774       14.2182494158        9.7108666457
  H        47.7801787326       14.3736382661        6.4952964139
  H        49.0840803610       18.5524937944       10.8676658193
  H        10.4161068858       14.1342418816        7.9988525656
  H        24.4763759561        3.0299971167        3.9115872693
  H        25.6103711301        4.8922478739        2.6824933391
  H        23.2353850671        7.7539025444        4.8433922578
  H        22.1196099526        5.8820804281        6.0736933402
  H        23.7957353539        5.7963334209        1.2593022025
  H        36.3539405289       32.1742526865        3.9866249245
  H        35.2310696465       30.3415527552        2.7171316682
  H        37.5362024036       27.4338516951        4.8928295381
  H        38.6368618290       29.2788707823        6.1734395561
  H        37.0118549852       29.4504815014        1.2928438856
  H        25.7139921188        8.6140320254        4.6491857960
  H        36.4526643551       32.2429088605       12.1115289698
  H        35.3411556332       30.4285655534       13.4109096058
  H        37.5396646372       27.4880426346       11.1683561736
  H        38.6257051710       29.3141228767        9.8561589995
  H        37.0300620268       29.4769060221       14.8451051723
  H        46.1095790610       26.5876650615       11.3856159822
  H        44.6683296177       35.1162355572        7.8139298465
  H        24.4355629503        3.0430218626       12.0866755067
  H        25.5646014629        4.8850960428       13.3362819180
  H        23.1606469593        7.7693387370       11.2390389401
  H        22.0431439362        5.9153440486        9.9894724581
  H        23.7787391263        5.7982933558       14.8103872103
  H        44.9540012329       34.3905359158        9.6952873643
  H        44.9019868977       34.2068769919        6.4906408028
  H        40.6664034304       33.2092769942       10.8534154861
  H        23.1501824138        1.9580552954        8.0051292900
  H        25.7854625745       19.6857551799        3.9580751524
  H        23.6225358689       19.7238655142        2.7171788202
  H        22.3583002394       16.1956883536        4.8265448120
  H        24.5315454149       16.1654543658        6.0593474454
  H        23.7223889278       17.6888630390        1.2509541233
  H        35.1770204239       15.4509067683        4.0939424398
  H        37.2724197826       15.4067883825        2.7269661476
  H        38.7355364042       18.8245781143        4.8910487009
  H        36.6339384134       18.8557176350        6.2496639773
  H        37.2316176209       17.3674699086        1.2613392712
  H        20.3512415586       17.9717432941        4.6690011608
  H        35.2095696173       15.4433141177       12.0757580742
  H        37.3446915514       15.3913931859       13.3727825640
  H        38.7317283638       18.8389874403       11.2066615755
  H        36.5940934566       18.8695279818        9.9045669742
  H        37.2461873936       17.3754209242       14.8081902322
  H        35.1527670678       26.6856337558       11.4065851785
  H        28.5098942811       21.0904018613        7.9612576129
  H        25.7614466383       19.6245621413       12.1601879012
  H        23.5759600861       19.6857888164       13.3738323693
  H        22.3014407233       16.1778885858       11.2369460937
  H        24.4856810913       16.1424205216       10.0157036858
  H        23.7038262502       17.6711668451       14.8002840087
  H        28.9960319740       21.7208740436        9.7705836345
  H        29.1579400443       21.7414370673        6.6031745740
  H        32.0531818807       18.5339267570       10.9999447435
  H        27.4015525942       19.0700569281        8.0802192347
  H        14.8515522021       19.6502431048       12.1378448922
  H        17.0146702443       19.6971997607       13.3795356533
  H        18.3046889809       16.1889953701       11.2519840846
  H        16.1375484786       16.1577248430       10.0098581739
  H        16.9222346436       17.6999693667       14.8435886492
  H        46.0960070900       15.4567626148       12.0826368887
  H        43.9750620119       15.4130904451       13.3976079410
  H        42.5618650358       18.8370911603       11.2103820922
  H        44.6831482605       18.8558802880        9.8858431531
  H        44.0319367152       17.3636575629       14.8465894009
  H        20.2954175289       17.9213562555       11.4210071909
  H        46.0474631894       15.3903629635        4.0362832094
  H        43.9152580021       15.3341173307        2.7385134153
  H        42.5232355827       18.7887005341        4.8896403454
  H        44.6625599419       18.8324581032        6.1866694043
  H        44.0170966301       17.3342720066        1.2972563448
  H        46.1993362367       26.6825709665        4.6233759232
  H        52.7411780518       21.0625615435        8.1946797342
  H        14.8763491289       19.6749872065        3.8983256542
  H        17.0763145536       19.7489830365        2.7161144557
  H        18.3330199946       16.2292100052        4.8439493492
  H        16.1350968856       16.1791584316        6.0357048541
  H        16.9403076503       17.7151758929        1.2911110494
  H        52.3221808757       21.6732504492        6.2944512871
  H        52.0130419072       21.7018853564        9.4956089823
  H        49.0680099514       18.6078490570        5.2043896336
  H        13.2477291967       19.0161636200        7.9773535757
  H        29.9543644206       12.4414364889       12.2126261428
  H        28.8880021197       10.5066779377       13.3842614988
  H        25.2332067721       11.2260626425       11.2354152527
  H        26.3192218809       13.1481534819       10.0568364938
  H        27.1920971769       11.6599065148       14.7947991290
  H        31.0065454517       22.7671493422       12.0282646106
  H        32.0176090817       24.6461554740       13.3273880467
  H        35.7009993985       24.1420019397       11.1644703104
  H        34.6692939223       22.2720781039        9.8606257874
  H        33.7016829115       23.5666014451       14.7580839024
  H        25.6998106510        8.6022016217       11.4033717466
  H        30.9630313003       22.6893602000        3.9701320157
  H        31.9883647884       24.5487849521        2.6533847175
  H        35.6448098079       24.0832078297        4.8706893877
  H        34.6035346067       22.2273287172        6.1837460781
  H        33.6863346958       23.5398066448        1.2117678562
  H        40.6076881889       17.0833656875        4.6690146920
  H        32.5380201985       14.1084264062        8.2582391388
  H        29.9130782100       12.4561544008        3.9829709888
  H        28.8749847186       10.5711080166        2.7195798446
  H        25.1722924125       11.2206344715        4.8080686893
  H        26.2264316726       13.1045915379        6.0713873622
  H        27.1871499222       11.6710476468        1.2457250060
  H        33.3281558627       14.1337717129        6.4374923730
  H        33.4096107565       14.3999431394        9.6179330624
  H        32.3698479727       18.6227010531        5.2743937077
  H        30.2029079458       14.1429663934        8.1065990548
  H        16.1183505390        2.9633301484       12.1299025096
  H        14.9532418087        4.8204747275       13.3226034701
  H        17.3661276147        7.6859299545       11.2100112423
  H        18.5147949269        5.8183618285       10.0102574972
  H        16.7537548572        5.7396789560       14.7715051660
  H        44.8277446466       32.1403499733       11.9775170684
  H        45.9370520687       30.3414869087       13.3069159431
  H        43.6832655511       27.3781506619       11.1518944214
  H        42.6005126707       29.1900076648        9.8092893037
  H        44.2302482850       29.4366412889       14.7689532784
  H        14.8511768529        8.5463163547       11.3633334031
  H        44.8993753879       32.2340073931        3.9313863084
  H        46.0242304228       30.4129684838        2.6518787173
  H        43.7642575937       27.4839666732        4.8461304261
  H        42.6465086633       29.3176527216        6.1252651205
  H        44.2682836807       29.4703513284        1.2182127863
  H        35.0979159457       26.5902801461        4.6475714697
  H        36.6051945838       35.1339821628        8.1806406445
  H        16.1437989341        3.0129406723        3.9037840712
  H        14.9742596406        4.8563631949        2.6880843959
  H        17.3958994962        7.7472295803        4.7553795062
  H        18.5429263684        5.8932850800        5.9829737145
  H        16.7648730017        5.7556031737        1.2192413075
  H        36.2785373945       34.4824891640        6.2729739093
  H        36.3808176611       34.2090980082        9.4995760821
  H        40.5803038909       33.2026225538        5.1537791666
  H        17.4706536795        1.9472869696        7.9740411243
  H        29.0245668371       19.4248448344       12.4020951997
  H        28.8249238010       18.9926754260        3.6677855754
  H        31.1087098198       15.0258066465        3.8729779196
  H        31.2853674939       15.6875087118       12.4998124331
  H        28.0403881594       17.9032813326       14.5268734155
  H        29.4505740111       15.5237545678       14.4505601260
  H        31.2682890339       18.6835499360        1.5952873808
  H        32.3769988815       16.9110622817        1.9235282886
  H        32.3888829698       18.8781875873       14.9826211380
  H        18.8535742900        0.8690689774       12.3352106867
  H        40.5280800116       35.2290267813        3.9520465084
  H        42.3240709130       34.4189906244        3.5903365015
  H        22.0876811621        0.6919453252       12.3516941336
  H        11.5968733533       18.7130373961       12.3827093571
  H        52.2648129177       18.4311725280        3.6771371738
  H        49.2553238145       16.4767910885        3.5844744323
  H        10.1503258439       15.7981601384       12.2927040551
  H        50.8500198405       17.6924057026        3.9542311867
  H        10.0461811545       17.3944422444       12.0519844643
  H        20.2149149387        0.0022772520       12.0419556348
  H        39.1835977568       36.1243746400        3.6864265919
 Ni        30.7313534604       17.4089886819        3.9125778035
 Ni        31.0725714338       16.8151581054       -0.2428097786
 Ni        29.9683070629       18.9672971372       -0.3351246641
 Ni        29.9701337406       17.4522474436       12.9932780188
  O        10.6500585500       14.3650232785        5.4858149378
  O        12.6132532812       14.6574666688        6.5839251106
  O        49.1482725491       16.8458874663        7.9898295756
  O        50.3502548129       20.9359600663        5.6481125863
  O        48.3485694562       20.5933396061        6.6659648724
  O        11.0521341816       17.0536622025        6.5006894245
  O        50.3211269552       20.8817069231       10.4068917370
  O        48.3468029931       20.5868786347        9.3272534351
  O        49.5437711268       18.2484391174       10.0683948137
  O        12.3591781144       18.6245987909        7.9997904442
  O        48.6933436005       14.1484388989        6.7513407889
  O         8.2098751906       14.2103604018        9.3226249425
  O        10.7354027461       14.5067083856       10.6643597376
  O        12.5718724801       14.5827883791        9.3285234059
  O        22.8441529215        2.0426609845        5.4874424700
  O        21.6046428200        3.5916973638        6.5904419484
  O        42.0582527619       34.1374266071        7.9790945608
  O        37.9815580476       33.1362639531        5.5723494861
  O        39.2192009662       31.5766880079        6.6673955712
  O        20.3083967782        1.0395554967        6.5020654987
  O        38.0245136271       33.1854868416       10.4155748599
  O        39.2185150409       31.5832011682        9.3273600978
  O        40.6522481998       33.7692894783       10.0603340669
  O        18.2553085676        1.3760753701        7.9967845387
  O        44.6222619730       35.1005663542        6.7587540224
  O        24.2054193449        0.0000267409        9.3208047513
  O        22.7528665760        2.0579547849       10.5837892657
  O        21.6240317088        3.5957268109        9.3420121251
  O        27.4890414883       18.7489882916        5.4943987973
  O        26.7638659845       16.9320111920        6.6532602856
  O        30.7052679928       19.3482083160        8.0004470098
  O        33.6737852963       16.2647206417        5.8294727845
  O        34.3041299814       18.2460579326        6.7429012364
  O        29.6088906659       17.0491589277        6.5851822227
  O        33.6138196287       16.3232931239       10.4144563830
  O        34.3104562149       18.2409557837        9.4166696035
  O        31.6584661696       18.3175974013       10.1374679496
  O        30.3091831033       15.1076377641        8.0823718594
  O        28.5550816429       21.0334828906        6.8945638148
  O        28.5142587147       20.9586692982        9.4068493507
  O        27.4572303387       18.6790667576       10.6534687371
  O        26.6955885293       16.9274471574        9.4088441618
  O        13.1490983719       18.6928598374       10.5875306051
  O        13.9196551518       16.9162461505        9.4051999150
  O        50.5965627677       19.3503368728        8.0208460071
  O        47.6832543935       16.3271677120       10.4174028384
  O        46.9518710837       18.1759946765        9.3246352344
  O        11.0698136853       17.0154619132        9.4897265934
  O        47.6774653836       16.3349333183        5.6537476436
  O        46.9302087793       18.2355317818        6.6660312064
  O        49.5692529999       18.3177102489        5.9824946771
  O        10.3187146330       15.1000851050        7.9971205243
  O        52.6708303270       21.0279357167        9.2418393597
  O        12.1468732940       20.8912450549        6.6732254217
  O        13.1076432612       18.6137342300        5.3257827755
  O        13.9571759167       16.9870127721        6.6655998513
  O        29.9930200869       14.4395156619       10.7283434065
  O        28.0883857489       14.6542408356        9.4940554983
  O        32.1453593134       16.8599257063        8.0730767568
  O        30.9674572890       20.9575939718       10.3991806021
  O        32.9503128690       20.6050516692        9.3403525884
  O        29.5664119161       17.0708798596        9.5673378912
  O        30.8879019711       20.9395580901        5.6726598534
  O        32.9044202479       20.5178130431        6.6496172842
  O        31.6419315759       18.1726211304        5.7366181023
  O        28.2892617000       18.6768306952        8.0627596173
  O        32.4967025212       14.2098307328        9.3323604102
  O        32.4407992298       14.1389341747        6.8339688321
  O        29.9085226952       14.4292298858        5.4891921114
  O        28.0338360560       14.5867832487        6.7516446343
  O        17.8891791328        1.9665748445       10.6628444916
  O        18.9561360957        3.5271106397        9.4080292007
  O        39.1686216051       34.1387882037        7.9972258587
  O        43.2802136810       33.0589868003       10.3317162734
  O        42.0345133922       31.5064236165        9.2417058615
  O        20.3175582208        1.0365926531        9.4802940661
  O        43.2760489378       33.1824791654        5.5748867092
  O        42.0052349953       31.5840659438        6.5830372705
  O        40.5791504355       33.7753359913        5.9358750583
  O        22.3672735070        1.3845428086        7.9980287574
  O        36.6727422097       35.0997187184        9.2332812003
  O        16.4456440868        0.0641415640        6.6682213076
  O        17.9364914747        2.0433120224        5.3263669547
  O        18.9189027381        3.5930934030        6.6659405725
  O        29.7002210619       19.0405817370        4.0859932129
  O        29.7829552366       19.0386400225       11.9209427234
  O        31.6881415841       15.7568049038        4.1562243926
  O        31.2644514033       16.4850449756       11.9334883346
  O        31.5491083069       17.2839548555        1.5742279075
  O        30.2833963864       15.9778906752       14.2388487929
  O        31.5727765299       18.4613155724       14.6552679647
  O        30.7521322036       19.5822236381        1.3317418092
  O        28.7813692087       18.4603486433       14.2361275873
  O        39.4567999872       35.2437708513        4.0019952826
  O        19.1414884143        0.0045721613       11.9905447231
  O        41.9695246375       35.1726876225        4.0871126413
  O        21.6912332787       -0.0693904200       11.8959187798
  O        51.3650616538       18.6143094115        4.0054148258
  O        10.7511666804       18.7472111499       11.9049922873
  O        50.0797610673       16.4128462076        4.0917390435
  O         9.5244864718       16.4830526135       11.9912248053
 Zr         9.2973988218       16.0525649267        6.1825650560
 Zr        49.8362350735       16.0066511519        9.7463967315
 Zr        22.0734089538        0.0298717707        6.1890071166
 Zr        42.4611004334       35.1536972798        9.8010216215
 Zr        29.5853302339       19.0939328260        6.2536611871
 Zr        29.5887666069       19.1765247097        9.8137086204
 Zr        11.0384544052       19.0518027709        9.8278618273
 Zr        11.0441329131       19.1547035061        6.2511407521
 Zr        31.3477768351       16.0941279999        9.8497916779
 Zr        31.4370167960       15.9309823162        6.3072437710
 Zr        18.6011411667       -0.0012726092        9.7634424701
 Zr        18.5067338903       -0.0075274764        6.2137062731
 Zr        12.3022852003       16.3235635955        7.9905220474
 Zr        48.6171944294       18.8332050492        8.0107851483
 Zr        20.3148177055        2.4734274985        7.9906814431
 Zr        40.6437714276       32.6873687255        7.9785875976
 Zr        28.3526724420       16.3377630064        8.0769579639
 Zr        32.6626710535       18.8340438968        8.1018007788
  H        31.3694379894       20.3302087663        1.3333011434
