     571
 i =      177, E =     -4761.5842760083
  C        11.8587693247       14.0535748935        5.7415926233
  C        12.4562979216       12.8906436504        5.0232322348
  C        11.7045212531       12.1716556823        4.0816928976
  C        12.2808652344       11.1094392612        3.3893291601
  C        13.6214629896       10.7396983671        3.6169842323
  C        14.3547318929       11.4433603986        4.5903023413
  C        13.7818740296       12.5083537988        5.2818193634
  C        14.2609539291        9.6490064744        2.8435904811
  C        14.2562323997        9.6568680653        1.4218895439
  C        13.7430227414       10.7589790008        0.6679951887
  C        49.1268589361       21.2331374316        5.8798173244
  C        48.5500642526       22.4011124901        5.1526778014
  C        49.3000525553       23.0683697543        4.1716240691
  C        48.7331252742       24.1075137526        3.4384114547
  C        47.4026065267       24.5091691519        3.6670751423
  C        46.6716503922       23.8602983774        4.6805808561
  C        47.2341091300       22.8153927967        5.4099349701
  C        46.7723294368       25.5868522909        2.8698038518
  C        46.7612579462       25.5572573280        1.4480374014
  C        47.2611471736       24.4421518157        0.7045299692
  C        14.8602012897        8.5705400237        0.7086358732
  C        14.8917652887        8.5970882248        3.5202473690
  C        49.1131869142       21.2033669830       10.1454314679
  C        48.5277872849       22.3647913731       10.8725782967
  C        49.2670786859       23.0256307703       11.8653496962
  C        48.6907531424       24.0601977335       12.5968123282
  C        47.3602815891       24.4568172672       12.3586832551
  C        46.6398098009       23.8118185438       11.3352702402
  C        47.2133592232       22.7758857727       10.6035076607
  C        46.7217873369       25.5317766836       13.1497052122
  C        46.7334857364       25.5281350939       14.5714097634
  C        47.2488639199       24.4288765586       15.3277671676
  C        40.6225661138       17.0720645730       15.3097262412
  C        40.6290974098       17.0903577637       12.5000487411
  C        11.8829634192       14.0865631859       10.2854678428
  C        12.4723124085       12.9107708291       10.9897627580
  C        11.7146818093       12.1774467835       11.9156739102
  C        12.2812355411       11.0949714962       12.5840959794
  C        13.6201242473       10.7213969530       12.3524557031
  C        14.3582035930       11.4370500834       11.3918091723
  C        13.7928066361       12.5182365420       10.7191096365
  C        14.2536719031        9.6245815176       13.1228289251
  C        14.2524081776        9.6445279353       14.5446681908
  C        13.7424587983       10.7534388233       15.2917418870
  C        22.5108609935        3.2438152306        5.7528548031
  C        23.2238067099        4.3484410358        5.0518068122
  C        24.2198876516        4.0672445852        4.1051417813
  C        24.8459848841        5.1061409601        3.4217309620
  C        24.4913517151        6.4478729960        3.6651094358
  C        23.5231102281        6.7206279539        4.6484706712
  C        22.8924099954        5.6835188580        5.3303846779
  C        25.0989273730        7.5529578867        2.8899643608
  C        25.0770995860        7.5441525324        1.4685383290
  C        24.3736141043        6.5466045903        0.7213034395
  C        38.3014246847       31.9301409324        5.8499650076
  C        37.5681553310       30.8414370146        5.1421397025
  C        36.6042786770       31.1471844465        4.1691574459
  C        35.9832098728       30.1284204973        3.4519899852
  C        36.3118657348       28.7787947283        3.6856232225
  C        37.2458473452       28.4802919130        4.6955218233
  C        37.8705800104       29.4978634393        5.4119941798
  C        35.7078338201       27.6886746912        2.8869757676
  C        35.7381555600       27.7062630389        1.4654789232
  C        36.4411906478       28.7113748290        0.7291950592
  C        25.7065765116        8.6110197426        0.7498025910
  C        25.6935897806        8.6282576065        3.5620876919
  C        38.3289413846       31.9628890786       10.1562039400
  C        37.6063890140       30.8909301195       10.8989354851
  C        36.6738653513       31.2021875760       11.9002211971
  C        36.0614239999       30.1855318104       12.6302492463
  C        36.3676513449       28.8326321853       12.3822137865
  C        37.2784677275       28.5311704868       11.3512738505
  C        37.8927692745       29.5443851648       10.6223667385
  C        35.7569920887       27.7349432835       13.1660345329
  C        35.7633337083       27.7298708602       14.5880536888
  C        36.4527918555       28.7228896172       15.3524381101
  C        46.1354726425       26.6207613942       15.2815614369
  C        46.0879132585       26.5801848140       12.4736592467
  C        22.4614244842        3.2558922074       10.2573048184
  C        23.1568927012        4.3642954132       10.9791049306
  C        24.1607455001        4.0775715879       11.9178506577
  C        24.7902362079        5.1072734340       12.6129754885
  C        24.4360434702        6.4533565706       12.3921458236
  C        23.4553855490        6.7333867485       11.4217232308
  C        22.8212877647        5.7038983308       10.7269487295
  C        25.0682831327        7.5501863044       13.1669212660
  C        25.0620664196        7.5420977814       14.5895833099
  C        24.3647822394        6.5466707124       15.3445446736
  C        26.6160593202       17.8620400662        5.7847194193
  C        25.3085967246       17.9132900601        5.0627853461
  C        25.0410104624       18.9268308053        4.1285604493
  C        23.8295207461       18.9498058224        3.4401443468
  C        22.8471593783       17.9643385483        3.6657795942
  C        23.1092908435       16.9744212787        4.6320363801
  C        24.3234981137       16.9449693522        5.3168456587
  C        21.5749824263       17.9547749534        2.8989715607
  C        21.5769116832       17.9448625973        1.4762117613
  C        22.7841558784       17.8351178137        0.7164312564
  C        34.4988658292       17.2198330473        6.0018362348
  C        35.7815319926       17.1605870770        5.2396625022
  C        35.9671058389       16.1752809598        4.2571086319
  C        37.1304470779       16.1549388124        3.4918370235
  C        38.1410064715       17.1151188722        3.6929323208
  C        37.9569935715       18.0822060361        4.6999325381
  C        36.7891331127       18.1114040230        5.4587952364
  C        39.3864858817       17.1103586482        2.8915608005
  C        39.3748097990       17.1031256466        1.4697428936
  C        38.1635408829       17.2059804718        0.7161019133
  C        20.3308357785       17.9589675803        0.7663140940
  C        20.3497685685       17.9491266592        3.5801515783
  C        34.4413212428       17.2354763495       10.1917864049
  C        35.7418013056       17.1318710818       10.9137297838
  C        35.9447404423       16.1477741462       11.8925280407
  C        37.1352707983       16.1112446939       12.6142006521
  C        38.1503525679       17.0588146031       12.3778718070
  C        37.9531594122       18.0162198021       11.3651329144
  C        36.7626962876       18.0569218129       10.6458174910
  C        39.4000804556       17.0715436982       13.1699253235
  C        39.3820128636       17.0847932957       14.5914915268
  C        38.1668852176       17.1965026961       15.3390471366
  C        35.1334319945       26.6498182846       15.2910603726
  C        35.1691616580       26.6637635452       12.4818615432
  C        26.5739834069       17.8281371561       10.3226799337
  C        25.2582726532       17.8772720750       11.0282383416
  C        24.9944994577       18.8904515042       11.9622437749
  C        23.7768478865       18.9229373820       12.6360353182
  C        22.7938589271       17.9411598487       12.4005862417
  C        23.0519152632       16.9522228275       11.4339681294
  C        24.2700371037       16.9185997341       10.7573942000
  C        21.5305812770       17.9282743636       13.1747594956
  C        21.5539790810       17.9288445742       14.5966102802
  C        22.7728929090       17.8266899566       15.3398718458
  C        14.0472272217       17.8297153446       10.2884123131
  C        15.3521271415       17.8897778910       11.0127074320
  C        15.6074484670       18.8955627316       11.9580383113
  C        16.8165473447       18.9201261782       12.6505114213
  C        17.8050091382       17.9418668602       12.4200750320
  C        17.5544562887       16.9603021702       11.4425022066
  C        16.3447104970       16.9311606845       10.7514639036
  C        19.0740502148       17.9296293188       13.1894737379
  C        19.0722530249       17.9317600631       14.6120210187
  C        17.8650916944       17.8302848500       15.3726335737
  C        46.8021964864       17.2156068963       10.1563493981
  C        45.5081927230       17.1435955888       10.8956856820
  C        45.3034348707       16.1579052920       11.8737929066
  C        44.1192512638       16.1279643955       12.6056144983
  C        43.1085758714       17.0834135887       12.3822327074
  C        43.3096495096       18.0476495523       11.3759351410
  C        44.4949256988       18.0815334713       10.6448050625
  C        41.8559887770       17.0850404012       13.1734433730
  C        41.8666361729       17.0889718888       14.5955698755
  C        43.0783448756       17.1930828031       15.3484470429
  C        20.3187059949       17.9498461783       15.3210169720
  C        20.2986464299       17.9094991528       12.5080533064
  C        46.7870894794       17.2327275085        5.8866169779
  C        45.4879454143       17.1294098243        5.1645321244
  C        45.2732882209       16.1296829357        4.2036234120
  C        44.0880499794       16.1016189494        3.4732497108
  C        43.0885397671       17.0705396541        3.6868082028
  C        43.2948517012       18.0420605210        4.6840000076
  C        44.4810120683       18.0762248282        5.4098740457
  C        41.8408356281       17.0858547648        2.8930231366
  C        41.8591695764       17.0878840999        1.4721408681
  C        43.0748862316       17.1895480382        0.7253048943
  C        46.1532215741       26.6371529968        0.7263231486
  C        46.1624213758       26.6559736257        3.5359562602
  C        14.0454614529       17.8322248916        5.7088017419
  C        15.3660301483       17.9086771624        5.0179813561
  C        15.6371683034       18.9259722626        4.0907351377
  C        16.8655271247       18.9662353946        3.4350686666
  C        17.8505123557       17.9884236709        3.6807502885
  C        17.5861140247       16.9999340456        4.6462160396
  C        16.3597133362       16.9591682441        5.3055068625
  C        19.1179232424       17.9686899147        2.9120930014
  C        19.0951474261       17.9510925029        1.4904440073
  C        17.8761625955       17.8390359958        0.7488391323
  C        28.8101075474       14.0941360777       10.3912238507
  C        28.1960701226       12.9213099472       11.0800856974
  C        28.9283572439       12.1661889836       12.0079957337
  C        28.3317884138       11.0893123888       12.6591516804
  C        26.9891562468       10.7437429396       12.4056447039
  C        26.2774649399       11.4798414617       11.4415972357
  C        26.8719302644       12.5569877486       10.7889200701
  C        26.3237354404        9.6608689488       13.1662818098
  C        26.3177008635        9.6825442249       14.5874050989
  C        26.8339627443       10.7888214302       15.3344496186
  C        32.1792390194       21.2416029170       10.1474095482
  C        32.7747711430       22.4064035012       10.8669816762
  C        32.0251487518       23.0837793781       11.8408041231
  C        32.5937343812       24.1257199989       12.5668647409
  C        33.9275769451       24.5168465491       12.3405711303
  C        34.6599295946       23.8571493990       11.3358517466
  C        34.0933968198       22.8102663596       10.6110323358
  C        34.5542814547       25.5936130515       13.1404308344
  C        34.5448411999       25.5652910612       14.5618670776
  C        34.0383561400       24.4482146442       15.2985926167
  C        25.7032834409        8.6065601217       15.3050684153
  C        25.6830038026        8.6134787170       12.4918473908
  C        32.1003396706       21.2272236718        5.8862581492
  C        32.6909452425       22.3774323240        5.1384498262
  C        31.9555848086       23.0288559681        4.1355463613
  C        32.5336616164       24.0594070302        3.3970558698
  C        33.8599748113       24.4677724011        3.6429151009
  C        34.5774317143       23.8269938007        4.6710683821
  C        34.0047186802       22.7911653928        5.4049730091
  C        34.4971538999       25.5521660675        2.8605821048
  C        34.5142100197       25.5448876914        1.4389077546
  C        34.0229379617       24.4397565880        0.6751452740
  C        40.6182962976       17.0765265850        0.7547124660
  C        40.6136992489       17.1161704482        3.5638953763
  C        28.7377913524       14.0609755231        5.8228532691
  C        28.1290759838       12.9139066895        5.0857520731
  C        28.8785512031       12.1883164524        4.1468514663
  C        28.2973625392       11.1351108492        3.4446982650
  C        26.9516742980       10.7774779984        3.6606078207
  C        26.2188158477       11.4874550278        4.6299067927
  C        26.7976686514       12.5434712392        5.3313682676
  C        26.3125715859        9.6866733184        2.8856079459
  C        26.3140739735        9.6956845336        1.4639937282
  C        26.8308371028       10.7961591504        0.7106067167
  C        18.1353170249        3.1811161222       10.3171513624
  C        17.4060112243        4.2782874792       11.0157158077
  C        16.3904063994        3.9998916361       11.9433618762
  C        15.7426527720        5.0398576082       12.6068291581
  C        16.0944520895        6.3836035296       12.3670611242
  C        17.0837483592        6.6531472032       11.4032071045
  C        17.7328781575        5.6158251110       10.7381732268
  C        15.4701269567        7.4912657278       13.1301331235
  C        15.4853960456        7.4905309806       14.5518433028
  C        16.1869934228        6.4969430974       15.3050105450
  C        42.9459073039       31.8595249096       10.0729015937
  C        43.6462532052       30.7718756361       10.8168516881
  C        44.5915893172       31.0932170615       11.8031125493
  C        45.1972918365       30.0876800581       12.5507863226
  C        44.8710955996       28.7345811369       12.3357555978
  C        43.9455302602       28.4202230050       11.3222987698
  C        43.3367278046       29.4253546915       10.5742394587
  C        45.4886612212       27.6552813695       13.1389491524
  C        45.4927586022       27.6808835177       14.5606426980
  C        44.8057028219       28.6889329583       15.3072899478
  C        14.8563691978        8.5629855277       15.2642056348
  C        14.8748623272        8.5630441238       12.4515405881
  C        42.9464944881       31.9615139932        5.8089988069
  C        43.6917806117       30.8853976614        5.0956397508
  C        44.6561210131       31.1913266173        4.1230842272
  C        45.2776396181       30.1717408326        3.4053694501
  C        44.9541358390       28.8213876291        3.6432279568
  C        44.0210637489       28.5237207439        4.6544013519
  C        43.3928031980       29.5404738485        5.3665934036
  C        45.5631199457       27.7240019039        2.8579466028
  C        45.5333144534       27.7173263420        1.4366458829
  C        44.8269696313       28.7075369093        0.6836853595
  C        35.1192611440       26.6387716770        0.7360320128
  C        35.1052834117       26.6111081817        3.5457522393
  C        18.1486338253        3.2470848782        5.7065062855
  C        17.4300206092        4.3438650198        4.9972761535
  C        16.4148846600        4.0525757953        4.0736199580
  C        15.7665272519        5.0832038738        3.3982911108
  C        16.1210968222        6.4284587459        3.6210971091
  C        17.1123694577        6.7118500063        4.5784685494
  C        17.7600945428        5.6829481325        5.2581912172
  C        15.4905597325        7.5241300589        2.8486676965
  C        15.4964215269        7.5074467317        1.4275347837
  C        16.1932397305        6.5057925425        0.6808242476
  H        10.6723622463       12.4657496937        3.9047789098
  H        11.6945214956       10.5508916001        2.6628843598
  H        15.3918129526       11.1688620427        4.7718979720
  H        14.3514012673       13.0716980009        6.0171150078
  H        13.3759699884       11.6310796830        1.2013180947
  H        50.3227547956       22.7483075622        3.9868866474
  H        49.3196150199       24.6227735674        2.6808324305
  H        45.6421643374       24.1610819814        4.8637691479
  H        46.6631221278       22.2901450778        6.1720469466
  H        47.6296537336       23.5757599977        1.2462164919
  H        14.8721480362        8.5883881466        4.6085558412
  H        50.2871675503       22.7028468862       12.0601521679
  H        49.2691870509       24.5757233960       13.3602386050
  H        45.6103439097       24.1089265944       11.1463317844
  H        46.6524760382       22.2535690933        9.8320900339
  H        47.6076316134       23.5517639502       14.7968452390
  H        40.6306391086       17.0571262348       11.4122003619
  H        48.6871715358       14.0949142429        7.8000549481
  H        10.6811627907       12.4664468964       12.0929232829
  H        11.6893713453       10.5244658883       13.2966437457
  H        15.3937116374       11.1593137438       11.2060786631
  H        14.3652486504       13.0877688760        9.9907851593
  H        13.3756040046       11.6220332965       14.7530893376
  H        47.9301060589       14.2187619863        9.7107234060
  H        47.7800179998       14.3737059651        6.4954645095
  H        49.0827502980       18.5517118363       10.8671697046
  H        10.4160100350       14.1343401217        7.9988038757
  H        24.4809902128        3.0284702876        3.9156553606
  H        25.6190574465        4.8886418609        2.6879440732
  H        23.2422868539        7.7537667849        4.8422627680
  H        22.1226718307        5.8839880939        6.0716112853
  H        23.8089657838        5.7917404978        1.2607009265
  H        36.3668164445       32.1908232433        3.9769558812
  H        35.2355691582       30.3691571878        2.6994090225
  H        37.5070975609       27.4408368632        4.8829627037
  H        38.6173193198       29.2753925757        6.1705474289
  H        37.0033833941       29.4627372583        1.2759921889
  H        25.7211884180        8.6143237886        4.6501500816
  H        36.4498601954       32.2469091007       12.1035873743
  H        35.3323477632       30.4320652698       13.3989461315
  H        37.5266519124       27.4904566023       11.1536599769
  H        38.6181892620       29.3171685643        9.8450002303
  H        37.0251151184       29.4826552632       14.8279766366
  H        46.1093966200       26.5875800314       11.3856249002
  H        44.6683377791       35.1162161039        7.8139175225
  H        24.4383594923        3.0391891249       12.0842379625
  H        25.5721581173        4.8779673521       13.3338056846
  H        23.1704053531        7.7680476241       11.2420778293
  H        22.0483429289        5.9173374835        9.9922366298
  H        23.7927389222        5.7923655336       14.8120944849
  H        44.9539686569       34.3904376900        9.6951721174
  H        44.9019611327       34.2068869473        6.4906070803
  H        40.6662836428       33.2092569367       10.8531587459
  H        23.1504564373        1.9578915991        8.0051466375
  H        25.7926708185       19.6942241368        3.9579771401
  H        23.6281969231       19.7412836448        2.7213228612
  H        22.3622438830       16.2049310833        4.8159931451
  H        24.5362816259       16.1668763664        6.0463270274
  H        23.7258220831       17.7243712967        1.2462741507
  H        35.1790627909       15.4414871477        4.1020183921
  H        37.2732730976       15.3844697638        2.7371772609
  H        38.7295380665       18.8318603691        4.8583597410
  H        36.6294384251       18.8738501543        6.2178593182
  H        37.2254692382       17.3240202807        1.2510301391
  H        20.3554299424       17.9809838347        4.6682928542
  H        35.1516277806       15.4294569860       12.0866193184
  H        37.2910927833       15.3446018060       13.3700368580
  H        38.7304395025       18.7539738010       11.1771580364
  H        36.5900863715       18.8140455858        9.8847653877
  H        37.2308349062       17.3077975793       14.7993267494
  H        35.1439025183       26.6893681426       11.3941118863
  H        28.5088109683       21.0859599537        7.9742846798
  H        25.7575430267       19.6440710177       12.1427419952
  H        23.5722602123       19.7135156783       13.3547926458
  H        22.3012389496       16.1871900558       11.2463831128
  H        24.4849263577       16.1437759243       10.0252881099
  H        23.7059324451       17.7096119807       14.7967504801
  H        29.0058014935       21.7211992287        9.7600059679
  H        29.1500337618       21.7474317387        6.6124759165
  H        32.0622711747       18.5465513188       11.0003108385
  H        27.4022123327       19.0699407551        8.0820403990
  H        14.8477461891       19.6536683331       12.1348021071
  H        17.0105217261       19.7064054338       13.3769257128
  H        18.3069912954       16.1970109852       11.2552738588
  H        16.1401152272       16.1600016014       10.0125653120
  H        16.9232756165       17.7115074622       14.8448466459
  H        46.0899472931       15.4290428166       12.0546425670
  H        43.9628973229       15.3566035754       13.3565534633
  H        42.5376810292       18.7934403067       11.1978010994
  H        44.6655334282       18.8410339042        9.8853171270
  H        44.0172428035       17.3080450157       14.8144655365
  H        20.2931237877       17.9326982711       11.4197541332
  H        46.0505047961       15.3885469209        4.0318669118
  H        43.9230451166       15.3248621876        2.7297538372
  H        42.5279137563       18.7947478808        4.8542786333
  H        44.6615442586       18.8441209522        6.1580706084
  H        44.0112910238       17.3007177551        1.2643531413
  H        46.1994062872       26.6825272095        4.6233971065
  H        52.7411671538       21.0626023994        8.1946600321
  H        14.8753714917       19.6788488615        3.9007656045
  H        17.0750475486       19.7582648465        2.7193210810
  H        18.3379859092       16.2386116325        4.8436624976
  H        16.1403180225       16.1832165975        6.0348786557
  H        16.9427305722       17.7268399978        1.2921299947
  H        52.3223163140       21.6732109678        6.2943492626
  H        52.0131845134       21.7020467491        9.4955879671
  H        49.0679493787       18.6078281083        5.2040447266
  H        13.2475206065       19.0164000502        7.9773248891
  H        29.9632221753       12.4378199217       12.2037714403
  H        28.9010757932       10.5024142803       13.3767829769
  H        25.2396597189       11.2228472600       11.2395334427
  H        26.3211053121       13.1462285351       10.0598498528
  H        27.2073081312       11.6535353036       14.7942071335
  H        31.0012722547       22.7667256719       12.0236841751
  H        32.0075517064       24.6515008749       13.3174100792
  H        35.6924865251       24.1496916934       11.1563849843
  H        34.6640223070       22.2751441231        9.8554589300
  H        33.6868233270       23.5789936472       14.7499829688
  H        25.7087862301        8.5980865508       11.4036751269
  H        30.9332069949       22.7076110924        3.9467076801
  H        31.9563633797       24.5697574407        2.6289417180
  H        35.6041126750       24.1302641736        4.8657190623
  H        34.5639597978       22.2742627573        6.1815174746
  H        33.6607445571       23.5632571497        1.2043795551
  H        40.6124671024       17.0912389769        4.6518924170
  H        32.5325229858       14.1133464405        8.2639578734
  H        29.9202093458       12.4570769542        3.9871270660
  H        28.8854041369       10.5700423207        2.7246571749
  H        25.1778752649       11.2224478945        4.8035969628
  H        26.2289638115       13.1077793241        6.0667667480
  H        27.2011507813       11.6663190357        1.2448728995
  H        33.3301964802       14.1482171970        6.4460597768
  H        33.4075658131       14.4011337074        9.6166212886
  H        32.2486790847       18.5932157791        5.2068344046
  H        30.2200881427       14.1795338838        8.1019388781
  H        16.1184194274        2.9633810072       12.1298220590
  H        14.9532511766        4.8204784447       13.3225411600
  H        17.3661099108        7.6860316725       11.2100375125
  H        18.5148568007        5.8185217094       10.0102758313
  H        16.7536449563        5.7396688487       14.7715201567
  H        44.8277236845       32.1403100347       11.9774344939
  H        45.9370346731       30.3414569743       13.3068426086
  H        43.6831096257       27.3781216817       11.1519568243
  H        42.6003740505       29.1899742818        9.8093361676
  H        44.2303765780       29.4367346757       14.7690060934
  H        14.8511562388        8.5463448490       11.3633185453
  H        44.8994586659       32.2340161717        3.9314222113
  H        46.0243466986       30.4129868276        2.6519415778
  H        43.7644680578       27.4839603383        4.8462873882
  H        42.6466545782       29.3176392582        6.1253716937
  H        44.2684993907       29.4704622407        1.2182516104
  H        35.0632534511       26.6219337915        4.6332615889
  H        36.6051615227       35.1342179826        8.1805386828
  H        16.1438463004        3.0129994087        3.9038398998
  H        14.9742567233        4.8563791692        2.6881405649
  H        17.3958007834        7.7473254691        4.7554367220
  H        18.5428941872        5.8934387918        5.9830243793
  H        16.7647571213        5.7556030391        1.2192411798
  H        36.2786104671       34.4826715801        6.2730842815
  H        36.3809170406       34.2092049783        9.4994410389
  H        40.5803864876       33.2027136895        5.1534868624
  H        17.4707837411        1.9476615711        7.9741311038
  H        29.0713144232       19.3867375197       12.4534587477
  H        28.8261865027       18.9376467294        3.7214088264
  H        31.0845468377       15.0589170433        3.8968679295
  H        31.3421083076       15.6813848328       12.5603796063
  H        28.4321918126       17.9108048297       14.8444910308
  H        29.4880032349       15.5602482913       14.5035101547
  H        31.1194049995       19.0705942826        1.7496325492
  H        32.2169032583       16.9766975482        2.0619286199
  H        32.4773776310       18.7242252896       15.6682071021
  H        18.8538458668        0.8692748780       12.3352177733
  H        40.5280570737       35.2289821576        3.9519730675
  H        42.3243851664       34.4192183784        3.5902100611
  H        22.0877291182        0.6920602100       12.3516343404
  H        11.5970924469       18.7125757716       12.3823338511
  H        52.2649330352       18.4311641859        3.6774339367
  H        49.2552727000       16.4766436400        3.5844689521
  H        10.1500240614       15.7982926021       12.2930286220
  H        50.8500609128       17.6924192699        3.9541956192
  H        10.0459686365       17.3945904433       12.0519936641
  H        20.2151390507        0.0023641972       12.0418982478
  H        39.1837602458       36.1244758638        3.6863768834
 Ni        30.6873205292       17.3811868268        3.7441767969
 Ni        30.9859653425       16.8683686033        0.0069756992
 Ni        30.1415704278       19.2602164580       -0.4129595113
 Ni        30.0513963794       17.4557260330       13.1546671034
  O        10.6499880527       14.3650931836        5.4858177150
  O        12.6132149622       14.6575197741        6.5839299463
  O        49.1479596257       16.8459360574        7.9898845402
  O        50.3502537670       20.9358206774        5.6480358303
  O        48.3485392270       20.5933130089        6.6659909907
  O        11.0518802020       17.0536993081        6.5007303006
  O        50.3209909333       20.8817072788       10.4068553838
  O        48.3467193900       20.5867730152        9.3271620092
  O        49.5436471340       18.2484027918       10.0683128156
  O        12.3590760986       18.6245776722        7.9997200865
  O        48.6932596577       14.1485536452        6.7513280320
  O         8.2098852821       14.2104013451        9.3225514797
  O        10.7353963341       14.5067679170       10.6643464689
  O        12.5718535253       14.5828287966        9.3285038707
  O        22.8442743452        2.0427352117        5.4873682215
  O        21.6051815665        3.5920456505        6.5900380124
  O        42.0582762484       34.1374392755        7.9790082270
  O        37.9816011462       33.1384404469        5.5726098190
  O        39.2177432352       31.5760396451        6.6662869606
  O        20.3084944538        1.0397323700        6.5021370559
  O        38.0249297141       33.1865077436       10.4149318069
  O        39.2190372442       31.5837515645        9.3265728986
  O        40.6523379983       33.7694233793       10.0601930524
  O        18.2553585455        1.3763386853        7.9968153174
  O        44.6222438103       35.1005751930        6.7587385160
  O        24.2054382493        0.0000051729        9.3207786690
  O        22.7529857638        2.0577133387       10.5837736503
  O        21.6245333587        3.5961534519        9.3427957872
  O        27.4953191193       18.7524401120        5.4947039307
  O        26.7635205743       16.9355436858        6.6522470189
  O        30.6734278959       19.3990145320        8.0501471819
  O        33.6727620077       16.2681638012        5.8287503017
  O        34.3089697695       18.2478625964        6.7445049589
  O        29.5973366681       17.0586721045        6.5763646736
  O        33.5558811119       16.3378678726       10.4173424546
  O        34.3031082435       18.2386617978        9.4119685351
  O        31.6524480899       18.3176954638       10.1484620752
  O        30.3280193665       15.1448351419        8.0859837669
  O        28.5528308728       21.0342281418        6.9023537942
  O        28.5138807701       20.9584461985        9.4108410720
  O        27.4596898617       18.6797575977       10.6567708711
  O        26.6957203584       16.9290541022        9.4108360086
  O        13.1486621141       18.6930767995       10.5873050052
  O        13.9197485519       16.9163838790        9.4053415957
  O        50.5960561344       19.3502244499        8.0206632292
  O        47.6830429546       16.3269697957       10.4171454240
  O        46.9503850321       18.1755778486        9.3255881440
  O        11.0697840831       17.0154905605        9.4896507321
  O        47.6764998964       16.3354295493        5.6532737404
  O        46.9275260763       18.2357545831        6.6643308680
  O        49.5687505091       18.3176702243        5.9824316101
  O        10.3186474123       15.1001841578        7.9971208532
  O        52.6707337996       21.0278715050        9.2418182491
  O        12.1468092878       20.8911725943        6.6732710439
  O        13.1077557316       18.6137851751        5.3257014058
  O        13.9575546905       16.9872210819        6.6652082353
  O        29.9948355884       14.4420792887       10.7282404057
  O        28.0900964849       14.6548005897        9.4929435424
  O        32.1424241913       16.8620191550        8.0845507335
  O        30.9654127398       20.9545792984       10.4064705087
  O        32.9478123472       20.6035757324        9.3404557569
  O        29.5664501998       17.0748480553        9.5713171153
  O        30.8726179365       20.9462488215        5.6643177536
  O        32.8781500668       20.5846249156        6.6662923172
  O        31.6844959564       18.2425273829        5.9178920250
  O        28.2899297527       18.6764454840        8.0705940694
  O        32.4939032385       14.2117449394        9.3345594945
  O        32.4379555325       14.1450913806        6.8316926178
  O        29.9127379808       14.4327393513        5.4919639876
  O        28.0371311071       14.5878439271        6.7536550798
  O        17.8892368792        1.9666835859       10.6628065456
  O        18.9562457134        3.5271437695        9.4080150303
  O        39.1686728984       34.1388462577        7.9971750209
  O        43.2801938306       33.0589552906       10.3317139052
  O        42.0344797366       31.5064774990        9.2416112826
  O        20.3177824439        1.0368389205        9.4801577730
  O        43.2760273968       33.1824848900        5.5748810684
  O        42.0052191541       31.5840743878        6.5830004685
  O        40.5789827616       33.7750279241        5.9358684068
  O        22.3673605576        1.3846211285        7.9979911992
  O        36.6727354014       35.0998557983        9.2332153944
  O        16.4455996975        0.0643850429        6.6683185388
  O        17.9365221151        2.0433810677        5.3264032614
  O        18.9189789317        3.5931705787        6.6659383184
  O        29.7284588583       18.9785246767        4.0852525232
  O        29.8237130839       18.9730347736       11.9874297998
  O        31.6497824662       15.8129283444        4.1546622040
  O        31.2564174593       16.4848616552       12.0102545288
  O        31.3524917265       17.3696564917        1.8276138266
  O        30.3273070170       16.0425716106       14.4052328302
  O        31.7795745834       18.3823970684       15.0781278112
  O        30.7957079110       19.9297726520        1.3226533398
  O        28.9772018203       18.5299353336       14.3215178733
  O        39.4568251739       35.2438306467        4.0019640721
  O        19.1416787403        0.0047677891       11.9905170202
  O        41.9695391966       35.1726673322        4.0871469634
  O        21.6913091919       -0.0693289211       11.8959277236
  O        51.3650702879       18.6143047167        4.0054405087
  O        10.7512009964       18.7471637010       11.9049683198
  O        50.0797180736       16.4128141913        4.0917649013
  O         9.5242819474       16.4831289968       11.9912245343
 Zr         9.2970115409       16.0526785579        6.1825136220
 Zr        49.8364148020       16.0067575411        9.7465270372
 Zr        22.0733987563        0.0300229374        6.1889716596
 Zr        42.4611248571       35.1537053656        9.8010513189
 Zr        29.5972452271       19.1084133079        6.2833582825
 Zr        29.5843603478       19.1747445106        9.8531354197
 Zr        11.0381818809       19.0518460035        9.8278368546
 Zr        11.0439877006       19.1546231269        6.2511549585
 Zr        31.3431064436       16.1057997747        9.8784040108
 Zr        31.4457454225       15.9574070022        6.3255251233
 Zr        18.6013529956       -0.0008164318        9.7633213733
 Zr        18.5067211474       -0.0071132974        6.2138103579
 Zr        12.3024572741       16.3236407225        7.9903852599
 Zr        48.6163577602       18.8328820289        8.0106884044
 Zr        20.3152672092        2.4738525776        7.9907124794
 Zr        40.6438707862       32.6874912857        7.9781755870
 Zr        28.3511377052       16.3440730543        8.0769121416
 Zr        32.6389541165       18.8452715683        8.0695954240
  H        31.4879115707       20.6036917877        1.4256770329
