     566
 i =      131, E =     -4712.2118653645
  C        11.8585278511       14.0535170832        5.7415899743
  C        12.4560430469       12.8903972066        5.0234499385
  C        11.7046233481       12.1718677070        4.0812701888
  C        12.2810518404       11.1096607168        3.3889356158
  C        13.6214394004       10.7394317898        3.6171400178
  C        14.3542498090       11.4425194619        4.5912462224
  C        13.7813053013       12.5074683237        5.2827609882
  C        14.2611508028        9.6488948630        2.8436917396
  C        14.2564503397        9.6568306956        1.4219758261
  C        13.7431518203       10.7588851209        0.6680512967
  C        49.1264496452       21.2332914959        5.8798410540
  C        48.5496626633       22.4011205335        5.1526862266
  C        49.2997846042       23.0685698882        4.1718335854
  C        48.7328748838       24.1076815329        3.4385993447
  C        47.4022600987       24.5091978971        3.6670347902
  C        46.6711658770       23.8601066046        4.6803074336
  C        47.2335740576       22.8151858156        5.4096831176
  C        46.7721438445       25.5869632768        2.8697432194
  C        46.7613282599       25.5574343380        1.4479745982
  C        47.2611897339       24.4422993502        0.7044883573
  C        14.8605004767        8.5705669460        0.7086720763
  C        14.8921423419        8.5970079425        3.5202842621
  C        49.1129792459       21.2034695948       10.1452848691
  C        48.5276492688       22.3647791392       10.8724689859
  C        49.2670064804       23.0256583095       11.8651978608
  C        48.6907076380       24.0602026526       12.5966810073
  C        47.3602310520       24.4568828090       12.3586001006
  C        46.6396864903       23.8117923059       11.3352877651
  C        47.2131733569       22.7758415830       10.6035009235
  C        46.7218714385       25.5319096117       13.1496332869
  C        46.7336727505       25.5283055117       14.5713394148
  C        47.2489882156       24.4290328870       15.3277217031
  C        40.6048883110       17.0762142591       15.2961615768
  C        40.5977956676       17.0670733720       12.4847172541
  C        11.8827078702       14.0865025889       10.2854361217
  C        12.4719223688       12.9104752882       10.9895270503
  C        11.7146041467       12.1777871139       11.9162038798
  C        12.2811088604       11.0952985543       12.5846627436
  C        13.6196909626       10.7209836066       12.3523672602
  C        14.3573839343       11.4359308937       11.3908652127
  C        13.7920254951       12.5171136963       10.7181302501
  C        14.2533768185        9.6243060107       13.1228293379
  C        14.2523361114        9.6443842490       14.5446808828
  C        13.7424864336       10.7533178650       15.2917957701
  C        22.5102136802        3.2459694192        5.7494535949
  C        23.2185631276        4.3523813900        5.0426989934
  C        24.2155583120        4.0743768132        4.0956236591
  C        24.8400294009        5.1144374298        3.4111842443
  C        24.4838341175        6.4566839633        3.6517952906
  C        23.5124275805        6.7259824341        4.6336843738
  C        22.8840044151        5.6878477862        5.3172154081
  C        25.0940893694        7.5649766703        2.8800010338
  C        25.0879205814        7.5561877875        1.4573617505
  C        24.3987912016        6.5552782485        0.7015609452
  C        38.2976925966       31.9277686547        5.8515867752
  C        37.5561316582       30.8387157826        5.1508124940
  C        36.5920929661       31.1441435116        4.1772277035
  C        35.9629188404       30.1255437235        3.4664597189
  C        36.2812846727       28.7737247607        3.7050086684
  C        37.2140544733       28.4760473155        4.7169937661
  C        37.8473685144       29.4935918088        5.4271602483
  C        35.6736671140       27.6847650819        2.9050469433
  C        35.7114382074       27.7020060799        1.4818793053
  C        36.4214808169       28.7041252242        0.7496532728
  C        25.7199868029        8.6261042896        0.7446228967
  C        25.6798479354        8.6426495751        3.5574161682
  C        38.3302787087       31.9609218610       10.1598101530
  C        37.6134475146       30.8882000943       10.9077592094
  C        36.6825887147       31.1970462344       11.9119146161
  C        36.0737725406       30.1796062479       12.6443828578
  C        36.3800428862       28.8259366393       12.3972985188
  C        37.2911745348       28.5272729708       11.3650720442
  C        37.9021078923       29.5411604077       10.6339140878
  C        35.7674200630       27.7269104997       13.1787616512
  C        35.7593190300       27.7236473285       14.6024032766
  C        36.4428306398       28.7153121457       15.3721522174
  C        46.1357400144       26.6209937631       15.2814640627
  C        46.0878856944       26.5802454995       12.4735710125
  C        22.4716828932        3.2600338037       10.2593381289
  C        23.1867126918        4.3673554009       10.9722114241
  C        24.1950731548        4.0767080576       11.9059737330
  C        24.8416525893        5.1027663670       12.5933450926
  C        24.5033211104        6.4536325108       12.3729302191
  C        23.5193254826        6.7373778692       11.4060864805
  C        22.8682932470        5.7114740971       10.7186034132
  C        25.1432356118        7.5487155422       13.1518630062
  C        25.1141072035        7.5468817998       14.5758854733
  C        24.4080090550        6.5528899191       15.3244155656
  C        26.6186073883       17.8565193646        5.7406394957
  C        25.3191001255       17.9163719901        5.0175395520
  C        25.0564842484       18.9122688443        4.0634940980
  C        23.8369704439       18.9362546465        3.3904065872
  C        22.8450334894       17.9686091825        3.6497580407
  C        23.1032361411       16.9976124185        4.6359541561
  C        24.3230887177       16.9676910603        5.3067335247
  C        21.5704740258       17.9517312238        2.8908856341
  C        21.5723413228       17.9226076361        1.4689319728
  C        22.7778981356       17.7869140092        0.7106433918
  C        34.4427483403       17.1912092133        5.9202791799
  C        35.7358554943       17.1441534432        5.1797713015
  C        35.9405635160       16.1788184911        4.1802293544
  C        37.1200011229       16.1677603052        3.4415200533
  C        38.1314223329       17.1197558159        3.6796198801
  C        37.9306554253       18.0635836572        4.7057861488
  C        36.7477190548       18.0811256405        5.4419562101
  C        39.3814877437       17.1292137797        2.8851367750
  C        39.3662108615       17.1258973855        1.4617978632
  C        38.1548612892       17.2459460430        0.7129612870
  C        20.3259029611       17.9406577907        0.7611601922
  C        20.3468508684       17.9547437924        3.5749335510
  C        34.3582885388       17.1699619219       10.2754913813
  C        35.6638136615       17.0727781687       10.9724218933
  C        35.8745442699       16.1282023182       11.9909677883
  C        37.0827031778       16.1010361504       12.6817430573
  C        38.1117535175       17.0188771269       12.3834598690
  C        37.9065802662       17.9296470079       11.3280332129
  C        36.7007165300       17.9608491207       10.6358781339
  C        39.3700084050       17.0528574202       13.1602840632
  C        39.3607953931       17.0886466566       14.5836343843
  C        38.1525933609       17.2281051073       15.3356154303
  C        35.1217709509       26.6448739741       15.3015222488
  C        35.1873929634       26.6530908616       12.4914333138
  C        26.5654391880       17.8276887112       10.3241854490
  C        25.2529529241       17.8722302155       11.0281758512
  C        24.9951302268       18.8695377738       11.9812636723
  C        23.7772898152       18.8952179766       12.6542282493
  C        22.7889712818       17.9234116320       12.3989434653
  C        23.0420411955       16.9508280724       11.4145717595
  C        24.2603136947       16.9227797906       10.7392639263
  C        21.5255050510       17.9051904641       13.1710647661
  C        21.5486812496       17.8961085348       14.5924974040
  C        22.7661409095       17.7736395862       15.3344439193
  C        14.0453193167       17.8294336746       10.2874923979
  C        15.3500627479       17.8879094779       11.0114563980
  C        15.6078221112       18.8948959549       11.9544598083
  C        16.8170623946       18.9170268227       12.6465352746
  C        17.8014468240       17.9348474855       12.4169353492
  C        17.5485806952       16.9519844830       11.4416157252
  C        16.3388536228       16.9254544629       10.7511234771
  C        19.0698109670       17.9178264777       13.1858533581
  C        19.0674476484       17.9175083769       14.6081512507
  C        17.8599192041       17.8231050155       15.3691425495
  C        46.7962693086       17.2123572595       10.1530214839
  C        45.4944091994       17.1322673049       10.8809240766
  C        45.2870926279       16.1497029148       11.8623078378
  C        44.0982957279       16.1160851465       12.5875268129
  C        43.0813834199       17.0640191282       12.3562969369
  C        43.2834261239       18.0216295238       11.3430342025
  C        44.4737196414       18.0598077987       10.6188085824
  C        41.8289631516       17.0696172539       13.1513936628
  C        41.8459044841       17.0841191713       14.5757210369
  C        43.0592194433       17.1916975929       15.3240286126
  C        20.3136966449       17.9271597859       15.3165842096
  C        20.2938354343       17.8956648495       12.5039668178
  C        46.7856563322       17.2346141357        5.8821214206
  C        45.4887119280       17.1361115345        5.1542168910
  C        45.2772513085       16.1474890469        4.1803918766
  C        44.0930881240       16.1241638134        3.4474618305
  C        43.0874189407       17.0856912593        3.6702603463
  C        43.2916434861       18.0463753115        4.6793558681
  C        44.4770601131       18.0766454579        5.4070441979
  C        41.8374489261       17.1032443353        2.8786702122
  C        41.8504864541       17.1003315758        1.4557460628
  C        43.0616898541       17.1962418375        0.7020604514
  C        46.1534597190       26.6374001814        0.7262263865
  C        46.1621999045       26.6560866324        3.5358753733
  C        14.0442094113       17.8322428571        5.7088179933
  C        15.3646696203       17.9089825445        5.0168883160
  C        15.6349549655       18.9271909313        4.0904836571
  C        16.8627732641       18.9682491935        3.4336738530
  C        17.8476930705       17.9902793328        3.6779755848
  C        17.5840815642       17.0004622759        4.6422198390
  C        16.3581972909       16.9589754827        5.3025064939
  C        19.1144586559       17.9690627084        2.9081070849
  C        19.0908294073       17.9433133464        1.4864278548
  C        17.8711563710       17.8344689668        0.7455091442
  C        28.8260524568       14.1490157715       10.4119157753
  C        28.2577021382       12.9611832430       11.1046510750
  C        28.9745635252       12.2552850451       12.0840266393
  C        28.3920949102       11.1627345367       12.7254838469
  C        27.0788954469       10.7479854231       12.4156202789
  C        26.3891896975       11.4343070984       11.3990157831
  C        26.9663092130       12.5249418146       10.7569054632
  C        26.4077999967        9.6600780448       13.1666915937
  C        26.3623583459        9.6931437765       14.5879597764
  C        26.8365959817       10.8147018797       15.3397431036
  C        32.1829638630       21.2367010397       10.1449626797
  C        32.7797204881       22.4018026602       10.8582687306
  C        32.0352236849       23.0731397741       11.8419741343
  C        32.6051624685       24.1119032889       12.5705958837
  C        33.9366396957       24.5112248389       12.3399301132
  C        34.6623237686       23.8602432531       11.3232332260
  C        34.0953103682       22.8152694350       10.5958719520
  C        34.5631664288       25.5843803086       13.1448896314
  C        34.5399571775       25.5586932301       14.5681615594
  C        34.0293796404       24.4432834676       15.3025795135
  C        25.7405978185        8.6160938512       15.2988440525
  C        25.7794636889        8.6060473787       12.4854722590
  C        32.0952126817       21.1648020580        5.8347785795
  C        32.6540674122       22.3326288387        5.0992375443
  C        31.9217801054       22.9903051681        4.0976230005
  C        32.4930311188       24.0392316947        3.3801779963
  C        33.8112018020       24.4648070993        3.6437453063
  C        34.5217626901       23.8249837833        4.6784158925
  C        33.9566621005       22.7722060413        5.3910087269
  C        34.4525785049       25.5524074975        2.8695381240
  C        34.4811184619       25.5433300611        1.4462462990
  C        33.9998484504       24.4365882832        0.6798616897
  C        40.6068195132       17.0899333740        0.7421894686
  C        40.6110686475       17.1355615035        3.5534320660
  C        28.7181112605       14.0930810693        5.8171970082
  C        28.1055878633       12.9437674550        5.0899981375
  C        28.8373784669       12.2589685978        4.1066600793
  C        28.2601134838       11.2006000900        3.4103294534
  C        26.9332749046       10.7986998039        3.6672133659
  C        26.2195116692       11.4702595470        4.6784746126
  C        26.7953478189       12.5293847878        5.3787397195
  C        26.2976068333        9.7078081462        2.8882267264
  C        26.3063680139        9.7187085755        1.4653002169
  C        26.8074778287       10.8286147876        0.7154700814
  C        18.1355944769        3.1808982979       10.3171498561
  C        17.4061039354        4.2781954292       11.0155716863
  C        16.3903573080        3.9997478058       11.9430372381
  C        15.7425729081        5.0396520237       12.6066063074
  C        16.0944180215        6.3834006123       12.3669994682
  C        17.0837893604        6.6530105849       11.4032527545
  C        17.7330007258        5.6157377497       10.7381729838
  C        15.4700436273        7.4910579628       13.1301142410
  C        15.4855460137        7.4904942909       14.5518357789
  C        16.1872958925        6.4969883753       15.3049718208
  C        42.9457789937       31.8596143025       10.0728789544
  C        43.6462294993       30.7719545632       10.8167972647
  C        44.5918396497       31.0932993665       11.8027839322
  C        45.1976076732       30.0877652885       12.5504146442
  C        44.8711286870       28.7346977804       12.3356477785
  C        43.9451654064       28.4203346481       11.3225667981
  C        43.3362949471       29.4254678332       10.5745515860
  C        45.4887667291       27.6554245677       13.1388410299
  C        45.4930455277       27.6811258932       14.5605365356
  C        44.8060047252       28.6892095277       15.3071533591
  C        14.8565580229        8.5629727128       15.2642214108
  C        14.8745434463        8.5627187565       12.4515513331
  C        42.9463961036       31.9616871591        5.8089916726
  C        43.6916271507       30.8855709592        5.0954739534
  C        44.6563617595       31.1914830290        4.1233122191
  C        45.2779003210       30.1719016720        3.4055877863
  C        44.9540081909       28.8215808234        3.6430747151
  C        44.0203412633       28.5239119576        4.6536827663
  C        43.3920570401       29.5406712974        5.3658568249
  C        45.5630698815       27.7241839562        2.8578223364
  C        45.5335131908       27.7175759248        1.4365165302
  C        44.8272692268       28.7078503674        0.6835465131
  C        35.0946084842       26.6358263252        0.7473661519
  C        35.0629949889       26.6084140895        3.5591706811
  C        18.1492060433        3.2469867753        5.7069684477
  C        17.4307485781        4.3439936789        4.9975252944
  C        16.4154481594        4.0527307250        4.0740608277
  C        15.7671466089        5.0833244838        3.3985810449
  C        16.1218790999        6.4285618257        3.6211231709
  C        17.1134276466        6.7119519802        4.5782062184
  C        17.7611007098        5.6830580741        5.2580525107
  C        15.4911962995        7.5242049749        2.8486826223
  C        15.4969607439        7.5075766826        1.4275337852
  C        16.1937228418        6.5059054874        0.6807898295
  H        10.6726409009       12.4662946593        3.9038388262
  H        11.6948912295       10.5514863902        2.6620541306
  H        15.3910773285       11.1674970624        4.7735021226
  H        14.3504833477       13.0702659931        6.0187415402
  H        13.3760409724       11.6309742111        1.2013486264
  H        50.3225427117       22.7486184817        3.9872449650
  H        49.3193827017       24.6230354846        2.6811018059
  H        45.6415665534       24.1606653363        4.8632329045
  H        46.6623877356       22.2897117917        6.1714950246
  H        47.6294562724       23.5757980077        1.2461660654
  H        14.8724738631        8.5881806835        4.6085915420
  H        50.2870732669       22.7028370007       12.0600216186
  H        49.2691194948       24.5757130559       13.3601305496
  H        45.6101722353       24.1088134049       11.1464690256
  H        46.6521080232       22.2533963854        9.8322989070
  H        47.6075562575       23.5518206978       14.7968291860
  H        40.5952078629       17.0196370276       11.3972489922
  H        48.6866798404       14.0950724221        7.7998590810
  H        10.6813074498       12.4672581517       12.0940020593
  H        11.6893840985       10.5252912986       13.2977281018
  H        15.3925814079       11.1575106488       11.2044163168
  H        14.3641459802       13.0859553769        9.9890185026
  H        13.3754844972       11.6218722300       14.7531833269
  H        47.9299175842       14.2190004352        9.7109779806
  H        47.7798439553       14.3734003082        6.4947960764
  H        49.0802160415       18.5508230157       10.8663352449
  H        10.4154427373       14.1344702540        7.9988862991
  H        24.4806464786        3.0364036783        3.9069440597
  H        25.6149107287        4.8964069616        2.6794309350
  H        23.2277069477        7.7582397873        4.8266715123
  H        22.1135716421        5.8886092591        6.0577249365
  H        23.8298282173        5.7987645858        1.2342191040
  H        36.3606887901       32.1880209393        3.9788323498
  H        35.2168539704       30.3686489920        2.7130433768
  H        37.4694096205       27.4361903223        4.9104559369
  H        38.5932262313       29.2686831768        6.1859670177
  H        36.9818509543       29.4548233283        1.2991040071
  H        25.7020574570        8.6247577072        4.6455850462
  H        36.4556922333       32.2412148257       12.1151076358
  H        35.3455113203       30.4264563835       13.4137513545
  H        37.5421689557       27.4872104833       11.1674900390
  H        38.6266192755       29.3136827881        9.8557309239
  H        37.0205918695       29.4743264100       14.8525177942
  H        46.1091327284       26.5875407825       11.3855305454
  H        44.6681467484       35.1160197485        7.8139797492
  H        24.4632432041        3.0364813111       12.0769670027
  H        25.6241085819        4.8644622969       13.3108113706
  H        23.2427722622        7.7737602354       11.2228654975
  H        22.0934938449        5.9337317850        9.9882592014
  H        23.8456914861        5.7951623462       14.7865227903
  H        44.9532960398       34.3901806389        9.6951625948
  H        44.9007354577       34.2067014202        6.4904241484
  H        40.6657673320       33.2090580656       10.8530759537
  H        23.1514716345        1.9580699395        8.0046260252
  H        25.8122337318       19.6685759478        3.8652554359
  H        23.6375029975       19.7128995221        2.6552859944
  H        22.3486668535       16.2418017997        4.8439195027
  H        24.5340434001       16.2037400243        6.0512107188
  H        23.7186713795       17.6596487040        1.2384822041
  H        35.1583548719       15.4482105761        3.9888903362
  H        37.2734646011       15.4120647315        2.6742886815
  H        38.7013192356       18.8077053283        4.8963387993
  H        36.5800798993       18.8270600025        6.2153998686
  H        37.2202396180       17.3866872987        1.2482812679
  H        20.3536584778       17.9975904380        4.6626908308
  H        35.0756777134       15.4332452069       12.2398835153
  H        37.2416272545       15.3645450372       13.4662458748
  H        38.6906602580       18.6445185542       11.0872135301
  H        36.5282275873       18.6849864464        9.8434129867
  H        37.2154416784       17.3561152498       14.8020083033
  H        35.1719488076       26.6779489936       11.4034388652
  H        28.5111571427       21.0857286342        8.0047450776
  H        25.7620776493       19.6153302625       12.1778673949
  H        23.5769320538       19.6722905287       13.3886242076
  H        22.2876834450       16.1930907924       11.2128565572
  H        24.4718198651       16.1588550973        9.9949982096
  H        23.6974704535       17.6369568548       14.7928907106
  H        29.0070179294       21.7218960094        9.7563914783
  H        29.1011863745       21.7775189120        6.6118955208
  H        32.0643512001       18.5727783535       11.0004279226
  H        27.4033811253       19.0865584309        8.0699884520
  H        14.8499441261       19.6551822848       12.1296812618
  H        17.0141829937       19.7037480494       13.3716099211
  H        18.2987740629       16.1858841490       11.2565655419
  H        16.1307447605       16.1537466291       10.0138267959
  H        16.9173862307       17.7087350156       14.8416084041
  H        46.0762995033       15.4261612002       12.0529875615
  H        43.9444650222       15.3477128850       13.3421000629
  H        42.5087783537       18.7623842201       11.1554158359
  H        44.6423065596       18.8171960201        9.8566516052
  H        43.9967639939       17.3022392892       14.7867668875
  H        20.2877408548       17.9250881208       11.4158407629
  H        46.0559511178       15.4095520449        4.0013168723
  H        43.9327064328       15.3541020341        2.6960395466
  H        42.5227459690       18.7951339874        4.8581165018
  H        44.6528892206       18.8373204827        6.1637519103
  H        44.0012402636       17.3097265697        1.2351410074
  H        46.1988501462       26.6825224776        4.6233309880
  H        52.7408035038       21.0624882671        8.1945672570
  H        14.8727248475       19.6799946109        3.9019198139
  H        17.0714895855       19.7608177262        2.7182681737
  H        18.3358674102       16.2385356244        4.8376565307
  H        16.1390339685       16.1821325342        6.0310296059
  H        16.9372061946       17.7287519744        1.2892532562
  H        52.3213963645       21.6729935063        6.2947797898
  H        52.0127326842       21.7017500941        9.4955738313
  H        49.0666005205       18.6079475838        5.2043972684
  H        13.2467559925       19.0168775315        7.9771213710
  H        29.9863196506       12.5731752279       12.3288835335
  H        28.9526470659       10.6175836139       13.4818397415
  H        25.3752777352       11.1291061171       11.1485574297
  H        26.4238349441       13.0725748785        9.9907357192
  H        27.1967167815       11.6887094338       14.8057111684
  H        31.0138500810       22.7531325733       12.0328014563
  H        32.0210887330       24.6288705960       13.3287407780
  H        35.6925937610       24.1568963807       11.1373935879
  H        34.6653734024       22.2891346245        9.8336632980
  H        33.6862272182       23.5698084175       14.7556035036
  H        25.8279053627        8.5835333045       11.3980619733
  H        30.9054717630       22.6657476305        3.8871698935
  H        31.9173816299       24.5466442393        2.6091617776
  H        35.5409955917       24.1405520076        4.8914439094
  H        34.5152542098       22.2589641766        6.1698980368
  H        33.6344498096       23.5570933040        1.2021507980
  H        40.6139326066       17.1084167787        4.6414821479
  H        32.5179831312       14.1468226463        8.2381427892
  H        29.8582343754       12.5730991431        3.9022624372
  H        28.8372840091       10.6685566045        2.6573190631
  H        25.1932142223       11.1745101899        4.8863608089
  H        26.2372059108       13.0617350077        6.1453454174
  H        27.1442967854       11.7130145859        1.2485340015
  H        33.3047170541       14.2251412565        6.4548608119
  H        33.4005202539       14.3273038077        9.6317716581
  H        32.1259177997       18.4637503517        5.1599437709
  H        30.1875117985       14.1549532901        8.0843028618
  H        16.1183697153        2.9632129873       12.1293768989
  H        14.9531422571        4.8201729750       13.3222578555
  H        17.3661869816        7.6859085701       11.2102196036
  H        18.5151537793        5.8184499451       10.0104637049
  H        16.7538169467        5.7396518694       14.7714245253
  H        44.8281562754       32.1403819893       11.9769112204
  H        45.9375420362       30.3415264215       13.3062885251
  H        43.6823684025       27.3782718365       11.1525619630
  H        42.5995849704       29.1901118881        9.8099816107
  H        44.2306274906       29.4369583097       14.7688472368
  H        14.8505974556        8.5458338550       11.3633362883
  H        44.8999937352       32.2341598818        3.9319560488
  H        46.0248852906       30.4131347899        2.6524319329
  H        43.7632153786       27.4841938383        4.8450928686
  H        42.6453822698       29.3178582029        6.1241252835
  H        44.2687356787       29.4707287370        1.2181168194
  H        35.0157051225       26.6187590161        4.6465729657
  H        36.6053710624       35.1340441810        8.1805884248
  H        16.1442817193        3.0131479272        3.9045049935
  H        14.9747412522        4.8564253103        2.6886017584
  H        17.3970386529        7.7474165271        4.7549410859
  H        18.5440576179        5.8935123563        5.9827357164
  H        16.7652805664        5.7557384854        1.2192028810
  H        36.2802486353       34.4813686676        6.2734769846
  H        36.3820772994       34.2085877326        9.4994654967
  H        40.5787861868       33.2021527762        5.1542118855
  H        17.4722008891        1.9473278945        7.9743972773
  H        29.1878981580       19.3608129957       12.6371254697
  H        28.5539187736       18.5889161669        3.9389173122
  H        31.8363428584       15.7811695122        3.5599923716
  H        27.9978148994       18.0140424708       14.3735976538
  H        29.7689519500       15.1470423633       13.9005061127
  H        32.3912678344       17.2017077940        1.2095233587
  H        18.8530604637        0.8689513013       12.3351028479
  H        40.5281285885       35.2289951953        3.9520529389
  H        42.3240535440       34.4185631287        3.5911992011
  H        22.0878062368        0.6922173838       12.3515314429
  H        11.5971190010       18.7125592511       12.3820302464
  H        52.2647375136       18.4306659927        3.6778856157
  H        49.2545776491       16.4776265047        3.5851893077
  H        10.1501490653       15.7982355399       12.2926280910
  H        50.8495818294       17.6923787092        3.9543549296
  H        10.0457382065       17.3946778936       12.0520106011
  H        20.2139051896        0.0020868658       12.0422012496
  H        39.1837988202       36.1244153488        3.6863190937
 Ni        30.4783873098       17.3558742143        2.4986579210
 Ni        30.9445712921       16.2040934615       -0.2511781321
 Ni        29.5081582401       17.9617030709        0.1677217792
 Ni        30.0592494000       17.3542662051       13.0764249061
  O        10.6498814762       14.3651509480        5.4857907733
  O        12.6131401136       14.6575509014        6.5838869017
  O        49.1475800264       16.8459906517        7.9899517230
  O        50.3500890124       20.9361585034        5.6482985042
  O        48.3484523806       20.5932882139        6.6660704201
  O        11.0510229740       17.0540624310        6.5005962094
  O        50.3208947641       20.8816962896       10.4068044214
  O        48.3466562984       20.5866866821        9.3271255744
  O        49.5432500789       18.2484166039       10.0683499743
  O        12.3586201695       18.6244935470        7.9996888213
  O        48.6930997136       14.1486454861        6.7512329659
  O         8.2097100008       14.2105876658        9.3226846782
  O        10.7352261185       14.5067175482       10.6643426205
  O        12.5717374178       14.5828324995        9.3284907694
  O        22.8448290287        2.0445717643        5.4865968381
  O        21.6064281823        3.5931213809        6.5895958736
  O        42.0579483214       34.1375651453        7.9792680235
  O        37.9814544907       33.1369453604        5.5722197092
  O        39.2171570538       31.5752294507        6.6656396935
  O        20.3087572174        1.0406342499        6.5027586251
  O        38.0245114138       33.1853499884       10.4154694334
  O        39.2186926680       31.5833263878        9.3270514316
  O        40.6522765873       33.7693939291       10.0601931687
  O        18.2566765563        1.3758564866        7.9969437743
  O        44.6220773135       35.1006696362        6.7587883164
  O        24.2053265612        0.0000901206        9.3208100229
  O        22.7546994076        2.0597298845       10.5861833128
  O        21.6277157685        3.6005504311        9.3513190635
  O        27.5518518522       18.6920261847        5.4063684115
  O        26.7297840800       16.9957128133        6.6652514129
  O        30.6688673661       19.4081375977        8.0795749652
  O        33.5873134010       16.2754678680        5.6693346053
  O        34.2709530623       18.1676422203        6.7393027670
  O        29.5719050624       17.0661171140        6.5751145458
  O        33.4330313099       16.3266822855       10.5875183284
  O        34.2276403282       18.1017509339        9.4115540357
  O        31.6417606715       18.3060922923       10.1652871484
  O        30.2931590830       15.1203782210        8.0800526821
  O        28.5546714774       21.0298889565        6.9105674920
  O        28.5147237302       20.9589004530        9.4069576247
  O        27.4520114020       18.6796225744       10.6566246169
  O        26.6935336865       16.9282655650        9.4118662659
  O        13.1479534475       18.6932756810       10.5871447976
  O        13.9189328344       16.9161241083        9.4046525876
  O        50.5952783142       19.3501139879        8.0206378144
  O        47.6804870141       16.3275921937       10.4176970755
  O        46.9493024165       18.1754464189        9.3261139540
  O        11.0690521904       17.0157509213        9.4896967467
  O        47.6757112802       16.3360098260        5.6523654452
  O        46.9257454226       18.2356422396        6.6634327506
  O        49.5681032767       18.3177238728        5.9823417481
  O        10.3184991831       15.1003643540        7.9970720842
  O        52.6706899888       21.0279153032        9.2418241091
  O        12.1467668278       20.8911924320        6.6732350340
  O        13.1071728508       18.6140810900        5.3256755361
  O        13.9568900116       16.9871811915        6.6649345984
  O        29.9929404167       14.5804654835       10.7468692597
  O        28.0906428766       14.6582750739        9.4954718456
  O        32.0683676959       16.8529955354        8.0722361242
  O        30.9673368060       20.9511807506       10.4074640779
  O        32.9496410201       20.5900398607        9.3358659006
  O        29.5594826524       17.0830070109        9.5630276184
  O        30.8776868596       20.8072584461        5.5736154608
  O        32.8659813500       20.5852929498        6.6648711228
  O        31.6729223913       18.2505392178        5.9930000761
  O        28.2859898325       18.6808419557        8.0775631079
  O        32.4862405847       14.2115416514        9.3202219793
  O        32.4039715443       14.2188886685        6.8208346144
  O        29.9037740131       14.4377360755        5.4955709457
  O        28.0054109699       14.6491295100        6.7346460401
  O        17.8893190006        1.9666715098       10.6627555346
  O        18.9565160395        3.5272269078        9.4079828446
  O        39.1686206857       34.1386759751        7.9971615079
  O        43.2801817801       33.0590494927       10.3316872465
  O        42.0344847583       31.5065023560        9.2415799339
  O        20.3180400397        1.0369912209        9.4802319431
  O        43.2760555220       33.1826875954        5.5749487005
  O        42.0052398554       31.5841319753        6.5830002738
  O        40.5790028768       33.7751009098        5.9361504861
  O        22.3677184936        1.3856417428        7.9984752749
  O        36.6728421453       35.0996912481        9.2333071034
  O        16.4458264454        0.0642729673        6.6682645644
  O        17.9366348101        2.0435103850        5.3265393415
  O        18.9195723683        3.5930657956        6.6663091291
  O        29.5314270699       18.7507416388        3.8260945962
  O        29.7845237813       18.9123612968       12.0003603439
  O        31.3111938086       16.4081738089        4.0915970669
  O        31.7608405738       16.4766714634        1.3964647891
  O        30.4674921030       15.8188641252       14.0012347197
  O        28.8524840492       18.4699214946       14.4856602142
  O        39.4569085704       35.2438381121        4.0020183242
  O        19.1408986794        0.0043757649       11.9905826893
  O        41.9696516477       35.1727256914        4.0873864971
  O        21.6913756271       -0.0692493544       11.8959375128
  O        51.3648709300       18.6142510156        4.0054919835
  O        10.7510866727       18.7472662326       11.9049807357
  O        50.0794785162       16.4128647643        4.0917041486
  O         9.5243033741       16.4831348808       11.9912030342
 Zr         9.2954193991       16.0528298412        6.1821994160
 Zr        49.8350640836       16.0071178978        9.7468765435
 Zr        22.0728836280        0.0301980170        6.1893723690
 Zr        42.4609807874       35.1540580244        9.8015413207
 Zr        29.6429560176       19.1013664394        6.3910161680
 Zr        29.5562184584       19.1694581139        9.9384861687
 Zr        11.0366353054       19.0522525933        9.8275904567
 Zr        11.0424781859       19.1549566203        6.2515698956
 Zr        31.3294029829       16.0983608222        9.8156644685
 Zr        31.3679953298       15.9939257328        6.2122863577
 Zr        18.6010648740       -0.0020243362        9.7632001771
 Zr        18.5069682966       -0.0075313660        6.2137729318
 Zr        12.3004455239       16.3234167415        7.9901735346
 Zr        48.6141065351       18.8324768781        8.0106406874
 Zr        20.3174599404        2.4748943776        7.9927535198
 Zr        40.6429098655       32.6864991196        7.9780758918
 Zr        28.3284285438       16.3413135293        8.0869024620
 Zr        32.6449220480       18.8222753626        8.0645401147
  H        29.1723046566       17.3475594366        1.5241721205
  H        29.6189643368       19.5182984878        3.2267123617
