     576
 i =      181, E =     -4780.0536208716
  C        11.8588336579       14.0535132115        5.7415351786
  C        12.4563516880       12.8906627065        5.0231709671
  C        11.7045431576       12.1714731298        4.0817924405
  C        12.2809364034       11.1092605257        3.3894759866
  C        13.6216231453       10.7397193740        3.6169782910
  C        14.3549415080       11.4436058021        4.5900963538
  C        13.7820458679       12.5086037851        5.2815661917
  C        14.2611145365        9.6490006058        2.8436140601
  C        14.2563499584        9.6568644532        1.4219167186
  C        13.7431500533       10.7589770220        0.6680206636
  C        49.1269933920       21.2331280570        5.8795795745
  C        48.5502706370       22.4011539565        5.1525043356
  C        49.3002723284       23.0684625021        4.1714937964
  C        48.7333516409       24.1076605890        3.4383436999
  C        47.4028528115       24.5093603140        3.6670655001
  C        46.6719332924       23.8605115221        4.6806153604
  C        47.2343802681       22.8155592457        5.4098970583
  C        46.7725112929       25.5870218244        2.8698157572
  C        46.7613294495       25.5573430467        1.4480570399
  C        47.2612844811       24.4422642123        0.7045531126
  C        14.8602750074        8.5705159317        0.7086607617
  C        14.8919435797        8.5970960145        3.5202769477
  C        49.1133548279       21.2034300420       10.1453770522
  C        48.5279679157       22.3648544373       10.8725615756
  C        49.2671285992       23.0255264943       11.8655388687
  C        48.6907669151       24.0600807403       12.5970017191
  C        47.3603839228       24.4568929916       12.3586963351
  C        46.6400725377       23.8120855817       11.3350385846
  C        47.2136600684       22.7761920718       10.6032632873
  C        46.7218571431       25.5318342911       13.1497101752
  C        46.7334474328       25.5281259520       14.5714168147
  C        47.2489563155       24.4289397059       15.3277927261
  C        40.6360523715       17.1631367995       15.3219372967
  C        40.6578129050       17.1835260737       12.5130756594
  C        11.8831183452       14.0865441486       10.2855234925
  C        12.4724709578       12.9108266067       10.9898109003
  C        11.7148790828       12.1774243501       11.9157083252
  C        12.2814869441       11.0949653700       12.5840954271
  C        13.6204055357       10.7214519455       12.3524759466
  C        14.3584877303       11.4372589531       11.3919395342
  C        13.7930447528       12.5184386142       10.7192717975
  C        14.2539637697        9.6246461650       13.1228602020
  C        14.2525763986        9.6445461908       14.5446988317
  C        13.7426399262       10.7534681406       15.2917668569
  C        22.5130596298        3.2444857462        5.7533286552
  C        23.2305449587        4.3485016587        5.0547175799
  C        24.2275221359        4.0657919539        4.1091859893
  C        24.8579622182        5.1034209769        3.4274267601
  C        24.5075185783        6.4463132142        3.6709197864
  C        23.5388435052        6.7205465781        4.6536336690
  C        22.9036096352        5.6846649966        5.3338113101
  C        25.1166344650        7.5508705256        2.8948113883
  C        25.0874421780        7.5438196412        1.4733146408
  C        24.3809370841        6.5468480272        0.7281974476
  C        38.2987819886       31.9278480630        5.8514948922
  C        37.5589059938       30.8387041871        5.1487887221
  C        36.5946419423       31.1451881586        4.1761435478
  C        35.9660597608       30.1270125733        3.4642609245
  C        36.2862516302       28.7758846702        3.7019461884
  C        37.2199159843       28.4767732048        4.7121840128
  C        37.8525914964       29.4939781500        5.4232962797
  C        35.6770614123       27.6874135667        2.9026072770
  C        35.7182333104       27.7019660336        1.4808740181
  C        36.4331450661       28.7015000302        0.7481408093
  C        25.7124369852        8.6121057066        0.7526056128
  C        25.7177199774        8.6240308065        3.5647385308
  C        38.3306734275       31.9614230722       10.1597692393
  C        37.6137564442       30.8885661480       10.9088967482
  C        36.6829214962       31.1987449421       11.9123414966
  C        36.0730228335       30.1819781699       12.6450886267
  C        36.3789657792       28.8285289991       12.3982884103
  C        37.2905222589       28.5282187662       11.3673865738
  C        37.9024421832       29.5415685172       10.6359680598
  C        35.7638976756       27.7303808379       13.1799756221
  C        35.7624403863       27.7241278683       14.6024821026
  C        36.4529785974       28.7129046539       15.3714535157
  C        46.1353900435       26.6207375597       15.2815568016
  C        46.0879072396       26.5802025982       12.4736607792
  C        22.4609626301        3.2558643855       10.2579691228
  C        23.1551255371        4.3639319571       10.9814294646
  C        24.1569081483        4.0767720789       11.9223182744
  C        24.7855086772        5.1060778729       12.6188526867
  C        24.4326878341        6.4524091877       12.3972034433
  C        23.4538202934        6.7327917373       11.4249840824
  C        22.8205092407        5.7037152265       10.7289111400
  C        25.0655407041        7.5495301536       13.1711106950
  C        25.0616091135        7.5425877636       14.5939944053
  C        24.3669254620        6.5471851623       15.3513543239
  C        26.6271132911       17.8619247677        5.7814828823
  C        25.3201296437       17.9072463486        5.0565866146
  C        25.0663781375       18.8934141529        4.0902844226
  C        23.8521630335       18.9135355615        3.4062276731
  C        22.8555130507       17.9502346540        3.6645880391
  C        23.1065637517       16.9863769929        4.6596153935
  C        24.3221089183       16.9610636535        5.3418612131
  C        21.5816005306       17.9334228815        2.9008725904
  C        21.5807439270       17.9059146897        1.4782039856
  C        22.7856308532       17.7766349469        0.7174634967
  C        34.4400225290       17.1948190299        5.9192237223
  C        35.7297428471       17.1534971850        5.1705783689
  C        35.9282033029       16.2022169249        4.1579515809
  C        37.1087409460       16.1967148344        3.4204583950
  C        38.1224122881       17.1404735598        3.6771482983
  C        37.9255316337       18.0725223551        4.7137273114
  C        36.7420015008       18.0843475466        5.4476293610
  C        39.3777237190       17.1544903116        2.8936852264
  C        39.3757845511       17.1799966428        1.4724507580
  C        38.1707267245       17.3121249068        0.7130514602
  C        20.3339024392       17.9237913827        0.7697923341
  C        20.3564137419       17.9390675344        3.5830755045
  C        34.4799202238       17.2455378581       10.1790756126
  C        35.7826254053       17.1760111087       10.9020502037
  C        35.9936415077       16.2030545083       11.8902984192
  C        37.1788624470       16.1915683093       12.6199602852
  C        38.1806309402       17.1518823602       12.3795554743
  C        37.9759758919       18.0991141612       11.3591724073
  C        36.7883352492       18.1163747371       10.6330903296
  C        39.4261860674       17.1757460957       13.1760379955
  C        39.4005583092       17.1909258016       14.5966938108
  C        38.1823021721       17.3149377987       15.3363626342
  C        35.1222907775       26.6475311835       15.3021817146
  C        35.1754659662       26.6609687483       12.4926612235
  C        26.5728487835       17.8256901942       10.3272331962
  C        25.2587864172       17.8710124997       11.0337671512
  C        24.9979379804       18.8696943931       11.9842477126
  C        23.7795789802       18.8941875680       12.6571398543
  C        22.7932815805       17.9196201759       12.4043512069
  C        23.0490481070       16.9459632759       11.4217697606
  C        24.2677210477       16.9195760386       10.7465326107
  C        21.5297749164       17.8991904663       13.1775398216
  C        21.5541108337       17.8871885763       14.5991777399
  C        22.7722819042       17.7677474025       15.3410092022
  C        14.0472285491       17.8284209518       10.2895399681
  C        15.3513308649       17.8842547149       11.0157107239
  C        15.6077963695       18.8852402369       11.9658582921
  C        16.8166011170       18.9046631425       12.6592789600
  C        17.8038420521       17.9260094679       12.4250765091
  C        17.5520547056       16.9493330661       11.4428733403
  C        16.3427089276       16.9252068602       10.7510629408
  C        19.0732999146       17.9077956270       13.1939719343
  C        19.0727098462       17.9034256386       14.6166160070
  C        17.8661361068       17.8046480328       15.3785119345
  C        46.8074303318       17.2205738900       10.1596816362
  C        45.5200551510       17.1657771081       10.9086886157
  C        45.3136492474       16.1940634073       11.8997325884
  C        44.1339303646       16.1851790174       12.6388615254
  C        43.1326137679       17.1480764980       12.4072207636
  C        43.3365374503       18.0996786061       11.3901054875
  C        44.5168639566       18.1126794877       10.6524643639
  C        41.8800327606       17.1676957569       13.1945423008
  C        41.8839895683       17.1709572521       14.6159844796
  C        43.0920810580       17.2620263075       15.3764536455
  C        20.3198046270       17.9134738141       15.3245891386
  C        20.2973657030       17.8893402337       12.5113323627
  C        46.7858827124       17.2311901350        5.8903784550
  C        45.4814359286       17.1276522542        5.1773006983
  C        45.2610508207       16.1347213780        4.2110256038
  C        44.0724895903       16.1143482223        3.4855239613
  C        43.0758318259       17.0836593394        3.7102139943
  C        43.2856066123       18.0446230500        4.7165807102
  C        44.4753599930       18.0717295831        5.4366402581
  C        41.8313021722       17.1162955474        2.9117306181
  C        41.8592500277       17.1431944581        1.4912675244
  C        43.0803192624       17.2463600012        0.7530719906
  C        46.1532071579       26.6371723988        0.7263193887
  C        46.1626498542       26.6561860082        3.5359550224
  C        14.0465143406       17.8320436109        5.7087533940
  C        15.3682608194       17.9066687332        5.0193104330
  C        15.6420979130       18.9204483163        4.0889260877
  C        16.8717563435       18.9573917499        3.4350584121
  C        17.8559392781       17.9798239496        3.6854593189
  C        17.5890919377       16.9954659290        4.6544783027
  C        16.3614185971       16.9578594315        5.3117553875
  C        19.1236023128       17.9535106283        2.9164850355
  C        19.0990025859       17.9253758556        1.4949725979
  C        17.8790470600       17.8143310803        0.7547407612
  C        28.8105729841       14.0909791316       10.3911719508
  C        28.1996706220       12.9148181493       11.0759518746
  C        28.9258769487       12.1692421497       12.0164894532
  C        28.3276251283       11.0939281684       12.6684747457
  C        26.9889960841       10.7400252938       12.4040246574
  C        26.2849097674       11.4649455273       11.4257935580
  C        26.8809191209       12.5404483469       10.7720780522
  C        26.3210761699        9.6602805418       13.1665762625
  C        26.3141058599        9.6847713064       14.5877951734
  C        26.8238847085       10.7950388521       15.3331420980
  C        32.1798562576       21.2405118840       10.1441591220
  C        32.7725479813       22.4091848034       10.8621122830
  C        32.0219710190       23.0864588221       11.8357607644
  C        32.5900036097       24.1272048681       12.5646275868
  C        33.9248267957       24.5183994058       12.3428725968
  C        34.6578121880       23.8593980651       11.3375191001
  C        34.0919274721       22.8139989367       10.6095199573
  C        34.5516431522       25.5929218671       13.1473260343
  C        34.5323405487       25.5657932209       14.5693145107
  C        34.0122808527       24.4540368239       15.3045326232
  C        25.7034964769        8.6079986608       15.3076209457
  C        25.6803772236        8.6114856487       12.4941025080
  C        32.0808853064       21.2000520717        5.8738984557
  C        32.6490469519       22.3610206709        5.1267755475
  C        31.9136595338       23.0148854507        4.1259179339
  C        32.4867884466       24.0553357153        3.3963360588
  C        33.8089464112       24.4728467266        3.6482229634
  C        34.5256893298       23.8322374242        4.6775415351
  C        33.9582414935       22.7881251033        5.4021247199
  C        34.4501738497       25.5587661143        2.8696140525
  C        34.4787180258       25.5491567858        1.4475639565
  C        33.9852835094       24.4468143709        0.6810318239
  C        40.6231849700       17.1532139862        0.7659857504
  C        40.5998591400       17.1392910749        3.5752115734
  C        28.7510153893       14.0682362653        5.8188272319
  C        28.1435894917       12.9201110421        5.0805396711
  C        28.8814316441       12.2253530603        4.1099702613
  C        28.3038459313       11.1669411108        3.4123364240
  C        26.9720907199       10.7771274359        3.6595343489
  C        26.2512487883       11.4599553863        4.6571635170
  C        26.8273357783       12.5185639851        5.3568013891
  C        26.3315468177        9.6854710819        2.8868881683
  C        26.3207224356        9.6977252543        1.4648896164
  C        26.8248711596       10.8026132705        0.7092161921
  C        18.1354203160        3.1810370903       10.3171294818
  C        17.4061650732        4.2782350928       11.0157399008
  C        16.3903991195        3.9998976045       11.9432280478
  C        15.7427174849        5.0398936309       12.6067278550
  C        16.0946935705        6.3836152191       12.3670872665
  C        17.0841205027        6.6531144366       11.4033571948
  C        17.7331746102        5.6157604447       10.7382901621
  C        15.4703700262        7.4913052529       13.1301456940
  C        15.4855456714        7.4905393341       14.5518604975
  C        16.1870817700        6.4969179166       15.3050395318
  C        42.9458312966       31.8595710435       10.0728403539
  C        43.6462074411       30.7718660448       10.8168019635
  C        44.5915067322       31.0932038626       11.8030856756
  C        45.1972073172       30.0876637460       12.5507732766
  C        44.8710120196       28.7345730795       12.3357328321
  C        43.9454580524       28.4202268177       11.3222636404
  C        43.3366512461       29.4253577825       10.5741997025
  C        45.4885644559       27.6552603746       13.1389337362
  C        45.4926553163       27.6808495692       14.5606327437
  C        44.8055749743       28.6888806438       15.3072888499
  C        14.8565505374        8.5630096117       15.2642311788
  C        14.8752111897        8.5631469796       12.4515555513
  C        42.9464712761       31.9616852188        5.8089792540
  C        43.6917977597       30.8855313059        5.0955856492
  C        44.6562238777       31.1914464952        4.1231224231
  C        45.2777857990       30.1718583212        3.4054226116
  C        44.9541908278       28.8215232190        3.6432025582
  C        44.0209573955       28.5238633777        4.6542205523
  C        43.3926509544       29.5406217500        5.3663739595
  C        45.5631694054       27.7241031632        2.8579302530
  C        45.5332924815       27.7173483979        1.4366326739
  C        44.8268885006       28.7075272105        0.6836846777
  C        35.0973651087       26.6378784133        0.7476095408
  C        35.0607821558       26.6151319020        3.5580795809
  C        18.1486250847        3.2470507087        5.7065857834
  C        17.4300882913        4.3438387627        4.9973106461
  C        16.4147597688        4.0525774051        4.0738512853
  C        15.7664567625        5.0832183388        3.3984894972
  C        16.1212333849        6.4284458787        3.6211292422
  C        17.1127586944        6.7118186087        4.5782392815
  C        17.7604336562        5.6829001651        5.2579916243
  C        15.4907007943        7.5241237101        2.8486861308
  C        15.4965277914        7.5074394051        1.4275528286
  C        16.1932747914        6.5057273120        0.6808541939
  H        10.6723169326       12.4653790098        3.9049867423
  H        11.6945822898       10.5505462192        2.6631687379
  H        15.3921055044       11.1693168253        4.7715395439
  H        14.3516790564       13.0721241522        6.0166442365
  H        13.3761580089       11.6311015994        1.2013458024
  H        50.3229771309       22.7484185734        3.9867231748
  H        49.3198653599       24.6229611924        2.6808100859
  H        45.6425077033       24.1614243616        4.8639185302
  H        46.6634563406       22.2903432200        6.1720716056
  H        47.6299945360       23.5759630296        1.2462428327
  H        14.8724252599        8.5884457256        4.6085869060
  H        50.2871713911       22.7026747841       12.0604843403
  H        49.2691612209       24.5755200797       13.3605172286
  H        45.6107357529       24.1094685446       11.1458340593
  H        46.6529581335       22.2541227482        9.8315519518
  H        47.6078742991       23.5518847751       14.7968830206
  H        40.6657290163       17.1456257120       11.4254790112
  H        48.6871026108       14.0949781877        7.8000382822
  H        10.6813178409       12.4662887866       12.0929099489
  H        11.6896459271       10.5243701668       13.2965894945
  H        15.3940368326       11.1596435855       11.2062496228
  H        14.3655262084       13.0880411601        9.9910325377
  H        13.3758716348       11.6221044659       14.7531265579
  H        47.9303300504       14.2181653793        9.7110311463
  H        47.7800927586       14.3735806679        6.4951969901
  H        49.0849163363       18.5528740428       10.8677157641
  H        10.4163601605       14.1342513804        7.9987097050
  H        24.4859438648        3.0265096471        3.9187612689
  H        25.6309803093        4.8836555596        2.6942285005
  H        23.2608419637        7.7543145013        4.8482250678
  H        22.1335563029        5.8874912318        6.0741225428
  H        23.8185855923        5.7915149908        1.2693474629
  H        36.3626429622       32.1892515723        3.9795081713
  H        35.2193534670       30.3698340639        2.7113764221
  H        37.4754979568       27.4367101789        4.9041788445
  H        38.5990795477       29.2693733700        6.1815565783
  H        36.9965554757       29.4497194636        1.2979958668
  H        25.7532494085        8.6072663948        4.6525468321
  H        36.4568050504       32.2432224789       12.1148130436
  H        35.3446497215       30.4293561012       13.4142130828
  H        37.5404278995       27.4878112042       11.1702201986
  H        38.6271503990       29.3135850931        9.8581068126
  H        37.0326318496       29.4695648707       14.8504140190
  H        46.1095008015       26.5877018480       11.3856288009
  H        44.6684029938       35.1162368649        7.8139010632
  H        24.4338795264        3.0382887108       12.0891100932
  H        25.5661171682        4.8762772425       13.3409371805
  H        23.1697575345        7.7675984878       11.2447275553
  H        22.0490996213        5.9176520131        9.9927299352
  H        23.7932263204        5.7927054892       14.8209329513
  H        44.9541336002       34.3906510936        9.6953178283
  H        44.9021215272       34.2069364940        6.4906043760
  H        40.6665171425       33.2094862722       10.8533333980
  H        23.1504678794        1.9579691017        8.0053615830
  H        25.8330254274       19.6382393445        3.8892109421
  H        23.6614073230       19.6850011091        2.6632385609
  H        22.3499031641       16.2328307225        4.8685594397
  H        24.5257880816       16.2026549639        6.0941908290
  H        23.7265443760       17.6548910285        1.2463689161
  H        35.1410384794       15.4790439869        3.9582758048
  H        37.2628416214       15.4506689592        2.6439072389
  H        38.7004773194       18.8091886652        4.9154386239
  H        36.5728981040       18.8177507674        6.2326931803
  H        37.2318302878       17.4385316921        1.2442452744
  H        20.3633688091       17.9838052055        4.6707694838
  H        35.2095704532       15.4742280955       12.0821838864
  H        37.3430164364       15.4343628397       13.3835443275
  H        38.7442464962       18.8459072817       11.1696337396
  H        36.6068839745       18.8653006412        9.8657965778
  H        37.2523551728       17.4424759066       14.7898368235
  H        35.1561639934       26.6871684225       11.4047830892
  H        28.5091252579       21.0796884555        7.9743908939
  H        25.7626550891       19.6181013234       12.1790022956
  H        23.5769025096       19.6731149896       13.3890319245
  H        22.2961428465       16.1866271137       11.2205352578
  H        24.4808111052       16.1561182505       10.0021298020
  H        23.7027971162       17.6387668500       14.7963579607
  H        28.9914244354       21.7227686665        9.7700423937
  H        29.1504551633       21.7468424686        6.6224758014
  H        32.1261369170       18.5684004461       10.9672377923
  H        27.4062627558       19.0730222346        8.0811386507
  H        14.8494087022       19.6439635929       12.1456789891
  H        17.0112574406       19.6873973446       13.3893313334
  H        18.3034622106       16.1857112882       11.2524977347
  H        16.1374841882       16.1576158467       10.0086535644
  H        16.9233466007       17.6886878223       14.8518306110
  H        46.0944688309       15.4597705488       12.0833980664
  H        43.9725741068       15.4241592042       13.3991543582
  H        42.5705458673       18.8507149118       11.2085673240
  H        44.6925918073       18.8612138991        9.8835019446
  H        44.0347109558       17.3749996302       14.8485496416
  H        20.2909692625       17.9214885338       11.4232578281
  H        46.0370191017       15.3945619393        4.0293844257
  H        43.9039115559       15.3449967149        2.7351514773
  H        42.5201975264       18.7966172526        4.8965346183
  H        44.6603074416       18.8333447767        6.1900995835
  H        44.0140143940       17.3460534777        1.2989613037
  H        46.1997259582       26.6828292555        4.6233900553
  H        52.7413388480       21.0626990821        8.1947334152
  H        14.8813819655       19.6733384345        3.8946123663
  H        17.0826086605       19.7465112372        2.7164814888
  H        18.3400551778       16.2343499318        4.8561628863
  H        16.1406553536       16.1845590420        6.0435085498
  H        16.9458690047       17.7058571572        1.2992515598
  H        52.3230233119       21.6734240326        6.2940471230
  H        52.0135326755       21.7022395789        9.4957109475
  H        49.0680763761       18.6077906543        5.2039603757
  H        13.2479622304       19.0159539488        7.9774671094
  H        29.9571727138       12.4467156569       12.2226137485
  H        28.8923692015       10.5151821837       13.3962107364
  H        25.2507600976       11.2012937126       11.2137869154
  H        26.3346206960       13.1214458227       10.0330925085
  H        27.1888711385       11.6626516322       14.7919142755
  H        30.9975236036       22.7706148744       12.0182059623
  H        32.0014293779       24.6509747204       13.3147173663
  H        35.6909348457       24.1511860861       11.1598950928
  H        34.6642270358       22.2802348089        9.8541721098
  H        33.6553971156       23.5873634333       14.7556377262
  H        25.7066547295        8.5934209904       11.4059786322
  H        30.8946024063       22.6928957529        3.9237550199
  H        31.9076749580       24.5618278651        2.6271959172
  H        35.5490215073       24.1419117186        4.8794457196
  H        34.5185957239       22.2733513852        6.1789319752
  H        33.6073577620       23.5741445985        1.2057721566
  H        40.5910662071       17.0905579504        4.6624076573
  H        32.5086273712       14.1471138790        8.2569883380
  H        29.9086501099       12.5283526421        3.9203432905
  H        28.8844048358       10.6242655785        2.6694048246
  H        25.2206190410       11.1723273864        4.8546936192
  H        26.2671145019       13.0612343382        6.1145324427
  H        27.1893974534       11.6761981421        1.2417088864
  H        33.3104567489       14.2236459145        6.4666517565
  H        33.4098403707       14.4085084898        9.6004591992
  H        32.1253461412       18.5011057082        5.1813878252
  H        30.2217613022       14.1909168362        8.0741618094
  H        16.1182679986        2.9634099858       12.1296036735
  H        14.9532278486        4.8205451719       13.3223519362
  H        17.3666567305        7.6859718150       11.2102988430
  H        18.5152618614        5.8184411127       10.0105039843
  H        16.7537165077        5.7396279638       14.7715543579
  H        44.8276655583       32.1402975030       11.9773793888
  H        45.9369551094       30.3414681778       13.3068170998
  H        43.6830728785       27.3781199691       11.1519048039
  H        42.6003397619       29.1900186350        9.8092411962
  H        44.2302816339       29.4367034721       14.7689969065
  H        14.8515928328        8.5464812306       11.3633315165
  H        44.8996658132       32.2341317609        3.9315587866
  H        46.0245975865       30.4131203199        2.6521015750
  H        43.7642737921       27.4841094290        4.8460188733
  H        42.6463671510       29.3178392677        6.1250346069
  H        44.2684913827       29.4704902998        1.2182747956
  H        35.0116536305       26.6273541760        4.6453200958
  H        36.6052770466       35.1340594741        8.1807247370
  H        16.1435634001        3.0130195942        3.9042096034
  H        14.9740329795        4.8564132069        2.6885037610
  H        17.3964251914        7.7472636215        4.7550083946
  H        18.5434679364        5.8933839108        5.9825751618
  H        16.7647713712        5.7555333596        1.2192895037
  H        36.2785573367       34.4825760316        6.2729784169
  H        36.3808393288       34.2091296791        9.4995520746
  H        40.5795181951       33.2022027389        5.1536970588
  H        17.4710789052        1.9473481366        7.9740872717
  H        28.9344968179       19.0294817488       12.3825546062
  H        30.0916561877       19.7062821561        3.6788531914
  H        31.7525644054       15.6659896013        3.5381506553
  H        31.3917021779       15.4908244422       12.5408000746
  H        27.7638579362       17.9128787379       14.8150189185
  H        29.5697386574       15.3140777088       14.7430706551
  H        32.0160756071       19.7262397107        1.6608672283
  H        32.9816162031       17.4133021636        1.3888710169
  H        28.8902043850       17.0915555378        1.5468302788
  H        32.3247819145       18.5784960819       14.6631377378
  H        18.8543890387        0.8691784434       12.3353630129
  H        40.5282663965       35.2290562584        3.9519873766
  H        42.3242628098       34.4190522539        3.5902238232
  H        22.0878221921        0.6921929667       12.3514336579
  H        11.5971452699       18.7128676147       12.3825663959
  H        52.2648433496       18.4312102979        3.6770285514
  H        49.2546388303       16.4769961253        3.5847395867
  H        10.1501809519       15.7981122754       12.2928249921
  H        50.8500698761       17.6925015528        3.9541808076
  H        10.0462904628       17.3943972872       12.0519509105
  H        20.2160954785        0.0025147069       12.0417854167
  H        39.1839813541       36.1248546542        3.6866989891
 Ni        31.2377422632       17.8462655490        2.9938199781
 Ni        31.2767000295       16.3638144286        0.0861714922
 Ni        30.1818439605       18.8413191479        0.1700437418
 Ni        30.3500430369       17.4313167180       13.3233735601
  O        10.6499666582       14.3650750920        5.4857949641
  O        12.6131782132       14.6575432920        6.5838887430
  O        49.1481219550       16.8458309852        7.9896970558
  O        50.3503452925       20.9357512822        5.6479608657
  O        48.3486306363       20.5933527429        6.6658776111
  O        11.0519408226       17.0537345344        6.5007379938
  O        50.3210892931       20.8816843066       10.4068847501
  O        48.3467718582       20.5868346555        9.3271609674
  O        49.5439532810       18.2483894942       10.0682468118
  O        12.3592708048       18.6246398037        7.9996935371
  O        48.6932792593       14.1485792293        6.7513060210
  O         8.2099367399       14.2103865266        9.3225244361
  O        10.7354253685       14.5067408819       10.6643186750
  O        12.5718505642       14.5828244211        9.3284807790
  O        22.8445736505        2.0429051310        5.4872305409
  O        21.6059792070        3.5925117693        6.5892558301
  O        42.0581462313       34.1373208012        7.9788871195
  O        37.9812337546       33.1362372788        5.5722644033
  O        39.2173423730       31.5749910217        6.6659129875
  O        20.3084074321        1.0395718008        6.5021470846
  O        38.0245127191       33.1852362654       10.4156446849
  O        39.2185789584       31.5831274192        9.3272211016
  O        40.6522897082       33.7692952364       10.0601107776
  O        18.2556687572        1.3760365764        7.9967759031
  O        44.6222279746       35.1005535040        6.7587471925
  O        24.2054036961        0.0000129410        9.3207594776
  O        22.7529476815        2.0575692846       10.5837756628
  O        21.6245826199        3.5961624673        9.3429190486
  O        27.5044914280       18.7517990795        5.4951953104
  O        26.7670285670       16.9352291698        6.6544485313
  O        30.6664820724       19.3991715103        8.0661462533
  O        33.5902003829       16.2737575492        5.6699958384
  O        34.2751953855       18.1687111166        6.7354859945
  O        29.5757804590       17.0608095992        6.5771696921
  O        33.6226796529       16.3289860814       10.4096682936
  O        34.3063543810       18.2478632275        9.4054528542
  O        31.6624248224       18.3084904799       10.1550453559
  O        30.3237776564       15.1567080562        8.0882926759
  O        28.5538648836       21.0306472634        6.9033383610
  O        28.5141063309       20.9548245843        9.4129401381
  O        27.4605448036       18.6785010758       10.6606692621
  O        26.6949503381       16.9296851406        9.4139182570
  O        13.1492131025       18.6927743180       10.5876155292
  O        13.9196075046       16.9162665194        9.4051755299
  O        50.5966341116       19.3503086875        8.0204469759
  O        47.6836878788       16.3269643121       10.4172821006
  O        46.9527256182       18.1761244445        9.3238769541
  O        11.0701143362       17.0153780904        9.4896247830
  O        47.6758069931       16.3356149326        5.6529256159
  O        46.9282450384       18.2358870354        6.6652404650
  O        49.5689465356       18.3176870747        5.9823044440
  O        10.3187602955       15.1000789229        7.9970954459
  O        52.6707966406       21.0278469433        9.2418247723
  O        12.1468696031       20.8911679418        6.6732463724
  O        13.1085679085       18.6135354429        5.3255255813
  O        13.9574202882       16.9871618835        6.6653021101
  O        29.9938400387       14.4442655361       10.7325030561
  O        28.0896861573       14.6535056100        9.4955308002
  O        32.1379186837       16.8511544716        8.0834171338
  O        30.9663068011       20.9496368591       10.4107991586
  O        32.9469307661       20.6017260086        9.3382362145
  O        29.5720786353       17.0718137698        9.5755961859
  O        30.8510170110       20.8859457108        5.6549094416
  O        32.8696705443       20.5873617262        6.6635934210
  O        31.6867671054       18.2482962867        6.0139348043
  O        28.2915068115       18.6739284421        8.0784683406
  O        32.4927460629       14.2139037958        9.3314023949
  O        32.4065624649       14.2136721601        6.8241556981
  O        29.9236720249       14.4405240988        5.4919812534
  O        28.0412656625       14.5888936870        6.7521564134
  O        17.8892568057        1.9665984628       10.6627826544
  O        18.9562659934        3.5270844584        9.4079390799
  O        39.1685852651       34.1387072372        7.9971403634
  O        43.2801809028       33.0589445466       10.3316803671
  O        42.0343872543       31.5064688052        9.2416101094
  O        20.3177107568        1.0368239063        9.4800020117
  O        43.2760796902       33.1826011457        5.5748825131
  O        42.0052427343       31.5841189888        6.5829807412
  O        40.5789015147       33.7749259041        5.9357797937
  O        22.3673777818        1.3846740923        7.9979327875
  O        36.6728391471       35.0997395853        9.2333314499
  O        16.4457216887        0.0641956048        6.6682273508
  O        17.9365249943        2.0433605373        5.3264071327
  O        18.9191171418        3.5930811814        6.6659401884
  O        29.9183546982       18.8215448870        4.0595538594
  O        29.8143934538       18.8323940542       12.0029740011
  O        31.3333397851       16.3428163301        4.0994392406
  O        31.4256287309       16.3438041112       12.0675393611
  O        32.2374381130       16.8496121871        1.6664459605
  O        28.5965377517       18.0241665184        1.5010018049
  O        30.3750030074       15.8236889481       14.5636913999
  O        31.5175920426       18.0900495798       14.8960206779
  O        31.1379857690       19.3479195420        1.8354891266
  O        28.3896667981       18.3874759592       14.2403111507
  O        39.4569642688       35.2440669496        4.0019761024
  O        19.1423937094        0.0048284092       11.9904190484
  O        41.9694733201       35.1725647138        4.0870962696
  O        21.6913962360       -0.0693326592       11.8959426303
  O        51.3650651690       18.6142672999        4.0053782879
  O        10.7513840244       18.7471034465       11.9049239354
  O        50.0791743760       16.4127737075        4.0917929949
  O         9.5244094720       16.4830400662       11.9912375323
 Zr         9.2976389515       16.0526516899        6.1825595138
 Zr        49.8370921279       16.0065285994        9.7462217341
 Zr        22.0734454440        0.0303294899        6.1887988232
 Zr        42.4611079840       35.1538633702        9.8008372958
 Zr        29.6053117100       19.0808019473        6.2951692672
 Zr        29.5882981115       19.1720332740        9.8703325999
 Zr        11.0388987999       19.0517225105        9.8278244410
 Zr        11.0447365004       19.1546516311        6.2508332235
 Zr        31.3529330831       16.1010283544        9.8888229469
 Zr        31.3945644108       16.0109420727        6.2886927095
 Zr        18.6014176980       -0.0009680278        9.7635238209
 Zr        18.5067668506       -0.0074256715        6.2136283439
 Zr        12.3031145878       16.3236084388        7.9902848430
 Zr        48.6177936186       18.8333330470        8.0101621833
 Zr        20.3156102519        2.4741671689        7.9904181095
 Zr        40.6435059263       32.6874054844        7.9780105136
 Zr        28.3429140175       16.3362204548        8.0824793724
 Zr        32.6349443391       18.8293220631        8.0556652270
  H        28.7017404512       19.2019307998       14.7890172704
  H        28.7747843480       18.3515459863        2.4215884389
  H        29.5023799096       20.1177184308       -0.3900938785
  H        30.7669379986       15.2482234576        0.8415227381
