     576
 i =      161, E =     -4780.0475305181
  C        11.8586524743       14.0534972025        5.7415692296
  C        12.4560809742       12.8904568585        5.0233928823
  C        11.7044144472       12.1716551627        4.0816026663
  C        12.2807469680       11.1094275906        3.3892465765
  C        13.6212682573       10.7394681375        3.6170731987
  C        14.3543680227       11.4428603904        4.5907318348
  C        13.7815306979       12.5078585531        5.2822513228
  C        14.2608113798        9.6488224468        2.8436449403
  C        14.2561256641        9.6567472517        1.4219371498
  C        13.7429146953       10.7588376906        0.6680150747
  C        49.1268073651       21.2331664538        5.8796702686
  C        48.5500755970       22.4011261433        5.1526248752
  C        49.3000840237       23.0684435896        4.1716060844
  C        48.7331472566       24.1075921432        3.4384216784
  C        47.4026182626       24.5092591390        3.6670772260
  C        46.6716963095       23.8603948944        4.6806228010
  C        47.2341437139       22.8154768887        5.4099556599
  C        46.7723448737       25.5869464259        2.8698069191
  C        46.7612860786       25.5573235600        1.4480423028
  C        47.2612207569       24.4422369349        0.7045361799
  C        14.8601458772        8.5704584357        0.7086570530
  C        14.8916460459        8.5968878975        3.5202787032
  C        49.1129327709       21.2034090628       10.1453349524
  C        48.5274856810       22.3646987207       10.8725169879
  C        49.2667880257       23.0255781849       11.8652702308
  C        48.6904515004       24.0601144559       12.5967443125
  C        47.3599618156       24.4567238860       12.3586645034
  C        46.6394616653       23.8116451048       11.3353084545
  C        47.2130190990       22.7757451495       10.6035104556
  C        46.7215395785       25.5317074711       13.1496983172
  C        46.7333576280       25.5280955170       14.5714015130
  C        47.2488764800       24.4289146733       15.3277742557
  C        40.6198181452       17.0974495051       15.3095793509
  C        40.6314327223       17.1091706201       12.4994432067
  C        11.8829613681       14.0865182120       10.2854493359
  C        12.4722296540       12.9106403804       10.9896001067
  C        11.7147863670       12.1776219990       11.9159243046
  C        12.2813375623       11.0951498907       12.5843472970
  C        13.6200802908       10.7212088909       12.3523701857
  C        14.3579387556       11.4365295731       11.3912801412
  C        13.7925392361       12.5176995475       10.7185620600
  C        14.2536823474        9.6244683791       13.1228108649
  C        14.2523642018        9.6444338936       14.5446603272
  C        13.7424153277       10.7533320178       15.2917588176
  C        22.5124997262        3.2440803718        5.7532848936
  C        23.2292042047        4.3479845467        5.0539957679
  C        24.2260687569        4.0650441200        4.1084929413
  C        24.8559182765        5.1025589353        3.4261518536
  C        24.5047323999        6.4452914546        3.6691892699
  C        23.5360411205        6.7197859928        4.6517591016
  C        22.9014541436        5.6840091044        5.3325402095
  C        25.1138687402        7.5495774678        2.8931370668
  C        25.0865203348        7.5419317061        1.4716651100
  C        24.3806685926        6.5447956846        0.7261299816
  C        38.3006969564       31.9268426900        5.8479632138
  C        37.5661518093       30.8379984177        5.1381081496
  C        36.6042381035       31.1451344608        4.1631121781
  C        35.9786470503       30.1281143632        3.4464006888
  C        36.2983107215       28.7762160029        3.6815937313
  C        37.2315820621       28.4765902377        4.6924359264
  C        37.8614475936       29.4925827612        5.4081172311
  C        35.6852369069       27.6873019918        2.8847203783
  C        35.7143853951       27.7012054888        1.4623093185
  C        36.4236829413       28.6995458466        0.7226557777
  C        25.7128384065        8.6096418263        0.7512813287
  C        25.7135022535        8.6232814506        3.5633957880
  C        38.3252482128       31.9594026036       10.1566217834
  C        37.5964032334       30.8859468786       10.8961781388
  C        36.6653176006       31.1963217059       11.8997786107
  C        36.0460183929       30.1800304222       12.6259028501
  C        36.3414318596       28.8247978809       12.3741521196
  C        37.2501426988       28.5244001270       11.3403151534
  C        37.8717395460       29.5375119722       10.6152576094
  C        35.7241588369       27.7279451626       13.1590221053
  C        35.7344934025       27.7218735027       14.5821998744
  C        36.4328733992       28.7096318010       15.3455759786
  C        46.1353847817       26.6207457645       15.2815479852
  C        46.0875450515       26.5800431043       12.4736497603
  C        22.4611886663        3.2554799108       10.2575104652
  C        23.1564320661        4.3631104708       10.9803926112
  C        24.1585084591        4.0750019127       11.9206323443
  C        24.7881148519        5.1037251089       12.6170052620
  C        24.4359084069        6.4501891700       12.3956014778
  C        23.4568917488        6.7315593577       11.4238776848
  C        22.8225325286        5.7030446512       10.7280136562
  C        25.0691812930        7.5466877518       13.1697235012
  C        25.0640788282        7.5397825129       14.5924945234
  C        24.3682143653        6.5447751070       15.3493018638
  C        26.6279594782       17.8632953917        5.7787125647
  C        25.3211027703       17.9196631108        5.0537254443
  C        25.0578886125       18.9356521972        4.1207786089
  C        23.8442598965       18.9666415616        3.4354672749
  C        22.8568990912       17.9857510810        3.6620342937
  C        23.1166902003       16.9925182533        4.6250557211
  C        24.3318233581       16.9562646648        5.3077662243
  C        21.5820389510       17.9798758687        2.8993200806
  C        21.5799802050       17.9661378975        1.4767274028
  C        22.7852900253       17.8552667754        0.7136852046
  C        34.4352006134       17.1974081245        5.9211174579
  C        35.7248703179       17.1522749865        5.1705219175
  C        35.9141589695       16.1992899196        4.1574458180
  C        37.0958763534       16.1814088499        3.4215974241
  C        38.1186833176       17.1164560912        3.6754975181
  C        37.9289088208       18.0519752776        4.7108558751
  C        36.7457005937       18.0742141092        5.4460942666
  C        39.3727448369       17.1209690301        2.8880130286
  C        39.3669079214       17.1302942794        1.4657901004
  C        38.1594458718       17.2522628173        0.7085491675
  C        20.3318129063       17.9757006677        0.7706069133
  C        20.3583693759       17.9741233230        3.5839528634
  C        34.4351328820       17.2386999857       10.1936947585
  C        35.7372458156       17.1384262053       10.9142788758
  C        35.9445089634       16.1607974323       11.8989589211
  C        37.1363102120       16.1316299719       12.6193220790
  C        38.1505418646       17.0785549410       12.3750115183
  C        37.9499583364       18.0279891324       11.3553609771
  C        36.7575864991       18.0624277850       10.6385436531
  C        39.4010251469       17.0963466351       13.1667415281
  C        39.3812681015       17.1163804240       14.5880923344
  C        38.1658580913       17.2426122549       15.3319478115
  C        35.0985440911       26.6465223080       15.2883116198
  C        35.1245514690       26.6599729489       12.4780358959
  C        26.5555781252       17.8205827760       10.3199087198
  C        25.2428898844       17.8715057971       11.0242184574
  C        24.9704614477       18.8988278230       11.9402769088
  C        23.7541927480       18.9297146424       12.6157972844
  C        22.7817507892       17.9337648895       12.3987201393
  C        23.0472898244       16.9310686459       11.4484660981
  C        24.2644703182       16.8979424069       10.7706394613
  C        21.5207808621       17.9232762670       13.1762492328
  C        21.5489303431       17.9349993467       14.5976716680
  C        22.7707276821       17.8401290942       15.3372317139
  C        14.0448063072       17.8281756620       10.2900245681
  C        15.3467721590       17.8845917155       11.0190670104
  C        15.6027054269       18.8929751271       11.9612999020
  C        16.8102596898       18.9162551237       12.6561756198
  C        17.7955248787       17.9337984245       12.4309514397
  C        17.5434599638       16.9478445687       11.4584011313
  C        16.3354711902       16.9203733743       10.7645768434
  C        19.0653768049       17.9243004598       13.1980666074
  C        19.0674690908       17.9358481213       14.6203192477
  C        17.8621607560       17.8385201955       15.3842530431
  C        46.8026452917       17.2167356075       10.1572571286
  C        45.5095216092       17.1482583950       10.8984242484
  C        45.3049350458       16.1676445513       11.8816216288
  C        44.1210039937       16.1418979706       12.6141596162
  C        43.1105926675       17.0966005403       12.3862346667
  C        43.3119015682       18.0559720301       11.3753040464
  C        44.4967792366       18.0857018724       10.6436222037
  C        41.8570973221       17.1025969457       13.1758575026
  C        41.8652921365       17.1082103130       14.5982390515
  C        43.0751737083       17.2074946642       15.3550291244
  C        20.3158132931       17.9591748552       15.3255762539
  C        20.2876206276       17.8987219024       12.5128980415
  C        46.7844624275       17.2322305249        5.8863854206
  C        45.4822959069       17.1278444722        5.1669001900
  C        45.2643596959       16.1297128145        4.2048343533
  C        44.0767040035       16.1021096324        3.4774259235
  C        43.0761899232       17.0697175119        3.6940017645
  C        43.2851828020       18.0385682637        4.6935135001
  C        44.4738363499       18.0724141114        5.4162312563
  C        41.8283610086       17.0899047579        2.8978888290
  C        41.8507367311       17.1008828856        1.4764145417
  C        43.0682888604       17.2008662473        0.7321123433
  C        46.1532226797       26.6371939746        0.7263111093
  C        46.1624131884       26.6560690662        3.5359538478
  C        14.0468513077       17.8342937653        5.7101743305
  C        15.3696923695       17.9161368107        5.0229235267
  C        15.6416197585       18.9387291775        4.1016114676
  C        16.8713409150       18.9843025293        3.4484997826
  C        17.8573540764       18.0064832106        3.6902355117
  C        17.5924479889       17.0129160039        4.6503758556
  C        16.3647070492       16.9670582509        5.3074406175
  C        19.1243631762       17.9899586366        2.9195744076
  C        19.0979912139       17.9687815918        1.4979864020
  C        17.8769472062       17.8533571044        0.7602300379
  C        28.8086308654       14.0898843689       10.3912959810
  C        28.1987537901       12.9138100376       11.0759519082
  C        28.9287459545       12.1644815149       12.0104728845
  C        28.3319635495       11.0885289111       12.6627895240
  C        26.9915252559       10.7378200638       12.4037585836
  C        26.2834634269       11.4665933652       11.4314241794
  C        26.8779421069       12.5429233941       10.7777436465
  C        26.3249514910        9.6570278286       13.1659980321
  C        26.3175622609        9.6813295719       14.5870734310
  C        26.8285740422       10.7910204689       15.3324216133
  C        32.1231103155       21.2056985237       10.1876057505
  C        32.7125342806       22.3811225190       10.8964038513
  C        31.9742044595       23.0527929667       11.8834716238
  C        32.5432581129       24.1068966642       12.5926947988
  C        33.8690194742       24.5144053450       12.3438042928
  C        34.5880229569       23.8602175317       11.3250189175
  C        34.0198439998       22.8054768128       10.6124799018
  C        34.5039191828       25.5925886516       13.1386281035
  C        34.5005762903       25.5649339589       14.5613457656
  C        33.9902845814       24.4521774202       15.3021688653
  C        25.7057369044        8.6050099804       15.3064541362
  C        25.6845548845        8.6084973625       12.4930612696
  C        32.0894256957       21.2043681201        5.8778053573
  C        32.6586195982       22.3630566210        5.1288138755
  C        31.9209451831       23.0204210864        4.1317592830
  C        32.4939544671       24.0597210657        3.4006967603
  C        33.8185335498       24.4732939226        3.6460496744
  C        34.5381982309       23.8290107560        4.6713273475
  C        33.9707667323       22.7858314563        5.3978014410
  C        34.4574546067       25.5580372283        2.8627343950
  C        34.4745128523       25.5482634350        1.4402733377
  C        33.9759417514       24.4448496763        0.6788162496
  C        40.6120368238       17.0991898803        0.7547629018
  C        40.5982575679       17.1161418991        3.5648074893
  C        28.7477214794       14.0661611465        5.8148719527
  C        28.1416552494       12.9175499173        5.0780558128
  C        28.8833830698       12.2135778898        4.1169602289
  C        28.3046095962       11.1560404074        3.4190998176
  C        26.9689907559       10.7751593870        3.6583518637
  C        26.2447105238       11.4655362917        4.6482070723
  C        26.8213426624       12.5241458346        5.3470709347
  C        26.3286165995        9.6837169816        2.8855495225
  C        26.3209058587        9.6952004518        1.4637143976
  C        26.8282073421       10.7989816705        0.7085040902
  C        18.1354426757        3.1808679582       10.3171584689
  C        17.4061329549        4.2781150411       11.0157856743
  C        16.3903151578        3.9997694993       11.9432002807
  C        15.7425765672        5.0397514549       12.6066910435
  C        16.0945778859        6.3834668971       12.3671103585
  C        17.0840847280        6.6529783201       11.4034723993
  C        17.7331958792        5.6156365250       10.7384269295
  C        15.4702070630        7.4911649624       13.1301477636
  C        15.4854506267        7.4904832253       14.5518648931
  C        16.1870381966        6.4968928505       15.3050371971
  C        42.9457391470       31.8595024704       10.0728590344
  C        43.6460670229       30.7717819861       10.8167898920
  C        44.5916183825       31.0931039705       11.8028434768
  C        45.1972964399       30.0875662276       12.5505426518
  C        44.8708334630       28.7345053772       12.3357215076
  C        43.9450290050       28.4201625116       11.3224853396
  C        43.3362255374       29.4252963633       10.5744167482
  C        45.4884049747       27.6552057582       13.1389284587
  C        45.4926579837       27.6808657828       14.5606264094
  C        44.8056666271       28.6889582305       15.3072773124
  C        14.8564164149        8.5629484606       15.2642173846
  C        14.8749263113        8.5629259578       12.4515429470
  C        42.9464276734       31.9616201371        5.8090381200
  C        43.6916935152       30.8854630181        5.0956085519
  C        44.6562923875       31.1913667364        4.1233123432
  C        45.2778247813       30.1717848845        3.4055825497
  C        44.9540632874       28.8214640688        3.6432100297
  C        44.0206076903       28.5237987147        4.6540179967
  C        43.3923333245       29.5405588570        5.3662009876
  C        45.5630736492       27.7240629655        2.8579283483
  C        45.5332997204       27.7173651828        1.4366266411
  C        44.8269916188       28.7076068898        0.6836721021
  C        35.0868344006       26.6370177316        0.7344627624
  C        35.0740825511       26.6147650261        3.5453785794
  C        18.1486308808        3.2469223367        5.7066133731
  C        17.4300018740        4.3437445862        4.9973350473
  C        16.4146812808        4.0524641975        4.0738873393
  C        15.7663498194        5.0830879471        3.3985012009
  C        16.1211024899        6.4283176828        3.6211135847
  C        17.1126310584        6.7117059338        4.5782115239
  C        17.7603358827        5.6828066425        5.2579750900
  C        15.4905430551        7.5240020452        2.8486790969
  C        15.4964295614        7.5073894585        1.4275418220
  C        16.1932405491        6.5057143656        0.6808520049
  H        10.6723210777       12.4658633298        3.9044989926
  H        11.6944416717       10.5510311709        2.6626535094
  H        15.3913381574       11.1681169954        4.7725902929
  H        14.3509865692       13.0709462292        6.0177963155
  H        13.3758013236       11.6309233201        1.2013180098
  H        50.3227884774       22.7484095662        3.9868396639
  H        49.3196295311       24.6228668417        2.6808478692
  H        45.6422256443       24.1612059198        4.8638465537
  H        46.6631391196       22.2902557564        6.1720702841
  H        47.6298245134       23.5758800162        1.2462095747
  H        14.8720021868        8.5881151623        4.6085859808
  H        50.2869058461       22.7028773510       12.0600415019
  H        49.2689015248       24.5757220228       13.3601010069
  H        45.6099996704       24.1087656182       11.1463667376
  H        46.6521169140       22.2534394575        9.8320989379
  H        47.6076757335       23.5518048903       14.7968730468
  H        40.6357721068       17.0715923988       11.4117296217
  H        48.6869816607       14.0949847534        7.8000083110
  H        10.6813640818       12.4667924143       12.0934525848
  H        11.6895461109       10.5248578796       13.2971269745
  H        15.3932833661       11.1584531322       11.2051406212
  H        14.3648141807       13.0868369461        9.9897986625
  H        13.3755406381       11.6219362974       14.7531414802
  H        47.9302020396       14.2181388512        9.7109492786
  H        47.7798565610       14.3730040152        6.4951060437
  H        49.0829029427       18.5520576364       10.8670250005
  H        10.4159048417       14.1343662451        7.9987278275
  H        24.4848538970        3.0257366023        3.9187180099
  H        25.6290477720        4.8829197502        2.6930408556
  H        23.2576283847        7.7535509994        4.8457301976
  H        22.1313747699        5.8866313768        6.0728705341
  H        23.8175346070        5.7897929270        1.2669268600
  H        36.3706868049       32.1893168331        3.9688546704
  H        35.2327063978       30.3728331250        2.6933675756
  H        37.4880450321       27.4364408278        4.8828425833
  H        38.6064069253       29.2661545163        6.1673751722
  H        36.9923621377       29.4477357896        1.2672219175
  H        25.7472231161        8.6073556689        4.6512679532
  H        36.4468191047       32.2411330897       12.1089382932
  H        35.3194713358       30.4299642668       13.3959537333
  H        37.4923034755       27.4834120700       11.1364004445
  H        38.5949235651       29.3069323232        9.8366322355
  H        37.0097942228       29.4651443461       14.8199877286
  H        46.1089097113       26.5874200517       11.3856133928
  H        44.6683581422       35.1161840130        7.8139698152
  H        24.4347457696        3.0362667678       12.0870392513
  H        25.5688951057        4.8734133576       13.3387436735
  H        23.1735852662        7.7666303789       11.2439744852
  H        22.0509010544        5.9174413348        9.9921981751
  H        23.7949214051        5.7903241191       14.8183842195
  H        44.9541412302       34.3906290804        9.6952824183
  H        44.9021356360       34.2069494241        6.4906191490
  H        40.6651468246       33.2083351345       10.8527184737
  H        23.1504108066        1.9577129356        8.0053325678
  H        25.8152191172       19.6988599857        3.9538210192
  H        23.6438530451       19.7614151715        2.7198927547
  H        22.3663403890       16.2262265951        4.8089301162
  H        24.5419900720       16.1763321093        6.0359893442
  H        23.7279359133       17.7475636874        1.2422701864
  H        35.1168566824       15.4876936008        3.9548537120
  H        37.2421928685       15.4319952334        2.6468126163
  H        38.7090461217       18.7835916940        4.9110023467
  H        36.5842243858       18.8098378762        6.2307809157
  H        37.2217371124       17.3825053141        1.2407779677
  H        20.3671868459       18.0073350697        4.6720467307
  H        35.1550431579       15.4397930465       12.0981049333
  H        37.2940061872       15.3705288734       13.3804042129
  H        38.7259848815       18.7651035131       11.1596883843
  H        36.5834153426       18.8140879833        9.8724736547
  H        37.2329233597       17.3646392930       14.7893162349
  H        35.0952757847       26.6860043315       11.3902909392
  H        28.5142994899       21.0759047545        7.9775240546
  H        25.7227886699       19.6664299161       12.1057163038
  H        23.5424010812       19.7297158152       13.3218920670
  H        22.3037145974       16.1558131631       11.2753267428
  H        24.4864829329       16.1125314761       10.0520128365
  H        23.7024459008       17.7218777301       14.7917007812
  H        28.9877958847       21.7150449576        9.7821900809
  H        29.1528050625       21.7423829234        6.6214413131
  H        32.0662853219       18.5148190695       11.0215771893
  H        27.3920322936       19.0669412754        8.0868624981
  H        14.8451555823       19.6544076964       12.1328424526
  H        17.0060277189       19.7050894496       13.3793182893
  H        18.2936993611       16.1810166046       11.2765498558
  H        16.1292943072       16.1469699926       10.0284849944
  H        16.9190941597       17.7172472833       14.8592487066
  H        46.0911435079       15.4392018433       12.0655615028
  H        43.9645396018       15.3740046479       13.3686097865
  H        42.5402581380       18.8012859062       11.1938228145
  H        44.6674846811       18.8413478546        9.8803451950
  H        44.0160327394       17.3202098890       14.8239947159
  H        20.2788473890       17.9136642019       11.4244998172
  H        46.0411397001       15.3890094253        4.0289046742
  H        43.9114207453       15.3264683920        2.7327839726
  H        42.5186321022       18.7907451370        4.8679422513
  H        44.6548318902       18.8393892355        6.1653069034
  H        44.0040383540       17.3071124856        1.2733301992
  H        46.1993291311       26.6826452416        4.6233957256
  H        52.7411082674       21.0626519834        8.1946431168
  H        14.8790620311       19.6913630132        3.9136588033
  H        17.0804838164       19.7800415322        2.7367260703
  H        18.3447480174       16.2513373596        4.8452530264
  H        16.1454728730       16.1869433724        6.0324572692
  H        16.9450728769       17.7435238381        1.3066540015
  H        52.3223544664       21.6732822653        6.2943960573
  H        52.0134421206       21.7022949010        9.4956775956
  H        49.0673455299       18.6075941088        5.2039382014
  H        13.2473824618       19.0165498153        7.9778476317
  H        29.9617731932       12.4401311813       12.2105273316
  H        28.8991535200       10.5064771745       13.3860117272
  H        25.2478520712       11.2049762279       11.2241305194
  H        26.3290951309       13.1270893706       10.0431777204
  H        27.1954237483       11.6577434676       14.7909342462
  H        30.9588750219       22.7235384655       12.0919386305
  H        31.9625530652       24.6266229554       13.3516310864
  H        35.6138096140       24.1628159952       11.1244692590
  H        34.5823901138       22.2786231368        9.8450729364
  H        33.6311405204       23.5834789471       14.7581440240
  H        25.7110839855        8.5907929024       11.4049435133
  H        30.9002252857       22.7028128001        3.9313329749
  H        31.9126408372       24.5675134554        2.6341526572
  H        35.5637710995       24.1344225951        4.8683088164
  H        34.5340337885       22.2681661593        6.1706137416
  H        33.6047194394       23.5708040688        1.2063304542
  H        40.5932983650       17.0795484095        4.6525320679
  H        32.5048128553       14.1540249855        8.2560437608
  H        29.9152507520       12.5057807017        3.9353662798
  H        28.8873869437       10.6067064662        2.6828312017
  H        25.2114554289       11.1835091920        4.8399459733
  H        26.2589206061       13.0728294211        6.0988059654
  H        27.1942365661       11.6718467463        1.2412091408
  H        33.2996993092       14.2006939871        6.4478150533
  H        33.4053981547       14.4145764865        9.5972948572
  H        32.1304765408       18.4910964612        5.1784141749
  H        30.2106571198       14.1862547618        8.0848587856
  H        16.1181610681        2.9632745761       12.1295125235
  H        14.9530246628        4.8203664939       13.3222374198
  H        17.3666212276        7.6858413676       11.2104503335
  H        18.5153355603        5.8182949963       10.0106894992
  H        16.7536344295        5.7395837465       14.7715339130
  H        44.8279457480       32.1401810178       11.9769944038
  H        45.9371940131       30.3413398723       13.3064488219
  H        43.6823497666       27.3780910668       11.1523622286
  H        42.5996144863       29.1899526562        9.8097483767
  H        44.2303828701       29.4367869463       14.7689828801
  H        14.8511918101        8.5461460774       11.3633221404
  H        44.8998674921       32.2340418732        3.9318749119
  H        46.0247516610       30.4130320571        2.6523726086
  H        43.7637107858       27.4840646316        4.8456388222
  H        42.6458904857       29.3177600386        6.1247025811
  H        44.2685907057       29.4705667619        1.2182633358
  H        35.0333749036       26.6276318550        4.6329775034
  H        36.6052015397       35.1337748923        8.1808474920
  H        16.1435089935        3.0128948857        3.9042643024
  H        14.9739210235        4.8562423427        2.6885304396
  H        17.3962563349        7.7471614918        4.7549796623
  H        18.5433575751        5.8932697694        5.9825783048
  H        16.7647075081        5.7555046875        1.2193000204
  H        36.2784371284       34.4824394958        6.2730290928
  H        36.3807052623       34.2092065368        9.5000824939
  H        40.5797524393       33.2020942931        5.1538457120
  H        17.4710738385        1.9468472657        7.9741208237
  H        28.6058505234       18.7930081279       12.2473503315
  H        30.4299766477       19.8598453919        3.9088020156
  H        30.9143830826       15.6561311105        3.6276633811
  H        31.5156365695       15.7570633501       12.6950407005
  H        28.3333532774       17.1617293857       15.1482603938
  H        29.8079968751       15.2653236397       14.7582419941
  H        32.3407006734       19.4798856799        1.5370455518
  H        33.0323582601       17.4493122388        1.4530231958
  H        27.9763432242       19.4172731833        1.3891073185
  H        32.3304098562       18.9058967170       15.1516073896
  H        18.8535019779        0.8689096163       12.3351514357
  H        40.5283230109       35.2289318579        3.9520491883
  H        42.3240304281       34.4187908514        3.5902880761
  H        22.0874349682        0.6923223462       12.3513560173
  H        11.5967243650       18.7129879453       12.3823105632
  H        52.2648710674       18.4310236938        3.6772821789
  H        49.2552148260       16.4766393481        3.5843411522
  H        10.1501298179       15.7982652398       12.2928243019
  H        50.8499827330       17.6924371022        3.9542374878
  H        10.0459892915       17.3946734633       12.0519221090
  H        20.2149816501        0.0020964116       12.0419314206
  H        39.1840014835       36.1248015671        3.6868167347
 Ni        31.2780420886       17.9185466811        2.9946116166
 Ni        31.1999273873       16.6460319345        0.1688501299
 Ni        30.2298652419       19.3494316383        0.2560903942
 Ni        29.9343884643       17.2773865339       13.3946405220
  O        10.6498816808       14.3651351478        5.4858551613
  O        12.6131668206       14.6575545520        6.5838740118
  O        49.1477566979       16.8459444214        7.9897349666
  O        50.3502638975       20.9358142960        5.6480636317
  O        48.3485517718       20.5932742856        6.6659293728
  O        11.0514369339       17.0538899949        6.5006915496
  O        50.3207186556       20.8816520904       10.4068560124
  O        48.3466344814       20.5866676545        9.3270332636
  O        49.5435804387       18.2484000689       10.0681733056
  O        12.3590155670       18.6245435127        7.9996124176
  O        48.6932120033       14.1486537071        6.7512882306
  O         8.2098870255       14.2104571229        9.3225451082
  O        10.7353581751       14.5067548325       10.6642936090
  O        12.5717963846       14.5828800840        9.3284488082
  O        22.8444546372        2.0426675537        5.4873154253
  O        21.6057471575        3.5923244698        6.5894186563
  O        42.0579001765       34.1371267501        7.9789972488
  O        37.9813316449       33.1356281698        5.5719331534
  O        39.2169970620       31.5745486744        6.6654213600
  O        20.3083056621        1.0393676956        6.5021078032
  O        38.0237241514       33.1839342462       10.4159076873
  O        39.2175922983       31.5822893785        9.3279833624
  O        40.6521163436       33.7690751438       10.0601238763
  O        18.2558157883        1.3757406034        7.9967746564
  O        44.6221931142       35.1005451221        6.7587884706
  O        24.2053679486       -0.0000057294        9.3207797087
  O        22.7529219009        2.0572794922       10.5836415078
  O        21.6245455159        3.5960649507        9.3428429771
  O        27.5090553614       18.7499061132        5.4910139492
  O        26.7626321490       16.9365549596        6.6503861597
  O        30.6323971785       19.3497369880        8.0742087206
  O        33.5854101602       16.2776047794        5.6716740146
  O        34.2714160892       18.1693880640        6.7414364797
  O        29.5667070529       17.0622153949        6.5800785380
  O        33.5485670098       16.3401383072       10.4238128778
  O        34.2962477048       18.2379463896        9.4098275247
  O        31.6439553155       18.3104161553       10.1696394996
  O        30.3163243033       15.1517759093        8.0911824426
  O        28.5542447492       21.0288598073        6.9049118287
  O        28.5143056014       20.9505903636        9.4136331144
  O        27.4428803701       18.6788330244       10.6534692953
  O        26.6907413315       16.9265431890        9.4126857206
  O        13.1474810511       18.6932408875       10.5872450623
  O        13.9192283848       16.9163131517        9.4053040646
  O        50.5958962581       19.3501536096        8.0201895535
  O        47.6826167240       16.3271352668       10.4173412408
  O        46.9505603564       18.1756770855        9.3252786487
  O        11.0696633175       17.0155238201        9.4895530185
  O        47.6752293456       16.3359864520        5.6525834668
  O        46.9256704474       18.2358036541        6.6635408139
  O        49.5684495211       18.3176813537        5.9822335968
  O        10.3186091583       15.1002312753        7.9971176674
  O        52.6707277863       21.0278912230        9.2418106727
  O        12.1468199587       20.8911836211        6.6732456010
  O        13.1080534507       18.6138752205        5.3256895009
  O        13.9580473301       16.9873947925        6.6647912318
  O        29.9926788136       14.4409955713       10.7310476232
  O        28.0882797953       14.6536643460        9.4959127802
  O        32.0754916125       16.8569601028        8.0955846375
  O        30.9246900654       20.8798263529       10.4952071656
  O        32.8678348941       20.6016048035        9.3391181412
  O        29.5622312127       17.0689155626        9.5750365046
  O        30.8564726263       20.8913360370        5.6578751275
  O        32.8701940343       20.5870382924        6.6682192664
  O        31.6856459623       18.2502500096        6.0137760664
  O        28.2779498858       18.6692892016        8.0829277088
  O        32.4887163952       14.2165604262        9.3326050503
  O        32.4047885620       14.2129062419        6.8262253974
  O        29.9211736053       14.4406501375        5.4862886765
  O        28.0413537564       14.5863206682        6.7493541763
  O        17.8892262776        1.9665015941       10.6627960377
  O        18.9562099265        3.5270552424        9.4079461765
  O        39.1684516060       34.1384034771        7.9972346213
  O        43.2801538689       33.0588756810       10.3316933459
  O        42.0342751129       31.5064660765        9.2416206749
  O        20.3174960239        1.0365207979        9.4801792208
  O        43.2760706646       33.1825615805        5.5749151397
  O        42.0051976226       31.5841136272        6.5830251144
  O        40.5788276803       33.7747385580        5.9359977660
  O        22.3672433274        1.3845311015        7.9979446985
  O        36.6728642720       35.0996692387        9.2334169495
  O        16.4456720822        0.0640745354        6.6682068932
  O        17.9364920169        2.0433007375        5.3264091542
  O        18.9190540877        3.5930985349        6.6659594099
  O        29.9881164639       18.9890013960        3.9973010105
  O        29.5653949725       18.6814862903       12.0959248192
  O        31.2134665532       16.4138164070        4.1608349579
  O        31.1868558749       16.4954754970       12.1499068263
  O        32.2670300140       16.9168347080        1.7361831248
  O        28.8503517511       19.7892675527        1.5900389076
  O        30.4602385365       15.9680500870       14.6001177176
  O        31.4661047149       18.4572597582       15.1687066465
  O        31.4190978788       19.4200352320        1.8399317057
  O        28.3870863369       17.8071333008       14.4150421741
  O        39.4569565407       35.2439843733        4.0020144824
  O        19.1414416902        0.0044147788       11.9904995715
  O        41.9693603127       35.1723807123        4.0871316025
  O        21.6912050347       -0.0693334671       11.8959281045
  O        51.3650798699       18.6142707377        4.0054066531
  O        10.7508540487       18.7472025014       11.9049009394
  O        50.0795630128       16.4128199499        4.0917941434
  O         9.5243411647       16.4831180987       11.9911397063
 Zr         9.2966374956       16.0527455572        6.1823753589
 Zr        49.8363219482       16.0067468987        9.7465325005
 Zr        22.0733132772        0.0298970985        6.1889979682
 Zr        42.4609939247       35.1534612153        9.8009843740
 Zr        29.5993309561       19.0729329191        6.2951021008
 Zr        29.5615087951       19.1491673767        9.9031242270
 Zr        11.0375658459       19.0520637550        9.8275617858
 Zr        11.0438531734       19.1547798747        6.2509581960
 Zr        31.3180601849       16.1019536987        9.9209577992
 Zr        31.3911505936       16.0085608311        6.2867829537
 Zr        18.6012867372       -0.0016646606        9.7635898064
 Zr        18.5065863608       -0.0079778066        6.2135588595
 Zr        12.3021073442       16.3235603905        7.9900101763
 Zr        48.6159433686       18.8329064677        8.0101566173
 Zr        20.3153835691        2.4736508620        7.9905106048
 Zr        40.6430389196       32.6867843915        7.9782800553
 Zr        28.3430171222       16.3333249791        8.0774564860
 Zr        32.6107699316       18.8186947276        8.0597358139
  H        28.8180340268       18.6568815355       14.8867899164
  H        29.1327625404       19.4069260963        2.4853216210
  H        29.3919872243       19.7769312573       -0.8780785696
  H        30.7900982167       15.4290913748        0.8338011903
