     566
 i =      165, E =     -4712.2339253190
  C        11.8584966208       14.0536692147        5.7415813053
  C        12.4560359634       12.8905357445        5.0231693760
  C        11.7044342747       12.1718082048        4.0813293270
  C        12.2807329639       11.1095191113        3.3889775853
  C        13.6211972095       10.7394861228        3.6169027078
  C        14.3543194896       11.4429009416        4.5905105141
  C        13.7814542625       12.5079260871        5.2820029871
  C        14.2606682901        9.6487131140        2.8435521051
  C        14.2560362569        9.6565448519        1.4218300989
  C        13.7429970153       10.7587123718        0.6678956529
  C        49.1263701781       21.2332625985        5.8799967658
  C        48.5493545279       22.4010317235        5.1526938913
  C        49.2996130379       23.0687657398        4.1721573480
  C        48.7326794705       24.1078359409        3.4388565518
  C        47.4019054887       24.5089523000        3.6669642278
  C        46.6706144334       23.8595395673        4.6798735664
  C        47.2330751918       22.8146641449        5.4093024457
  C        46.7717879817       25.5867528165        2.8696941538
  C        46.7610149550       25.5573275642        1.4479135569
  C        47.2610912577       24.4422946890        0.7044296962
  C        14.8597290103        8.5700406743        0.7085840525
  C        14.8913398429        8.5966917812        3.5202014062
  C        49.1129073464       21.2033093743       10.1453080629
  C        48.5274880202       22.3647355357       10.8724366293
  C        49.2669160336       23.0257899417       11.8649719455
  C        48.6906238272       24.0603585604       12.5964530836
  C        47.3600549088       24.4567772531       12.3585445306
  C        46.6393819222       23.8114825632       11.3354646532
  C        47.2128948428       22.7755097481       10.6037072602
  C        46.7216573658       25.5317967537       13.1495779786
  C        46.7334273650       25.5282480596       14.5712941359
  C        47.2489176634       24.4290488791       15.3276599048
  C        40.5933732428       17.0304321616       15.3071490068
  C        40.5872791487       17.0406260884       12.4941443565
  C        11.8825338050       14.0865897831       10.2854454301
  C        12.4716861885       12.9104181059       10.9896513384
  C        11.7140894766       12.1773320065       11.9157528634
  C        12.2804349894       11.0947316679       12.5842139764
  C        13.6191342309       10.7206942491       12.3522922395
  C        14.3572407671       11.4361107898       11.3914908811
  C        13.7919876881       12.5174201683       10.7188292305
  C        14.2526441873        9.6238562180       13.1227341061
  C        14.2517826729        9.6439476377       14.5445889425
  C        13.7422334772       10.7530574991       15.2916375751
  C        22.5069153711        3.2437499923        5.7488439985
  C        23.2113899590        4.3493305485        5.0383986100
  C        24.2061952331        4.0695949762        4.0900245173
  C        24.8280013442        5.1090208920        3.4028473713
  C        24.4703163269        6.4503629257        3.6439777827
  C        23.5000752904        6.7216044188        4.6259508048
  C        22.8742353506        5.6840022381        5.3118692205
  C        25.0802396839        7.5578036211        2.8728615695
  C        25.0695363247        7.5527641766        1.4508827993
  C        24.3762118517        6.5549935593        0.6945154717
  C        38.2971635135       31.9248110317        5.8529867313
  C        37.5566140196       30.8312125567        5.1576165073
  C        36.5866290264       31.1281140604        4.1873700303
  C        35.9605777269       30.1034542393        3.4819957076
  C        36.2883432896       28.7539844234        3.7219953578
  C        37.2259894082       28.4647983518        4.7317921399
  C        37.8558046719       29.4881745833        5.4367584623
  C        35.6881268997       27.6593480264        2.9229470116
  C        35.7278619272       27.6771355580        1.5001777008
  C        36.4336981201       28.6837114464        0.7690926388
  C        25.7024599621        8.6226776599        0.7397998647
  C        25.6709021571        8.6312995702        3.5522290175
  C        38.3310842058       31.9577102800       10.1638298041
  C        37.6202171036       30.8823437211       10.9174015853
  C        36.6891273127       31.1871093218       11.9230321458
  C        36.0850102061       30.1678988909       12.6583015400
  C        36.3950417614       28.8141586890       12.4143157560
  C        37.3077568188       28.5195208161       11.3819123899
  C        37.9137510435       29.5351374763       10.6477532961
  C        35.7839850441       27.7117283436       13.1962581782
  C        35.7759848455       27.7044508241       14.6203344279
  C        36.4556527619       28.6976804932       15.3919380387
  C        46.1354077709       26.6208939797       15.2814197732
  C        46.0875780871       26.5800677496       12.4735154130
  C        22.4684910527        3.2591323878       10.2564808795
  C        23.1777926336        4.3693918521       10.9693865005
  C        24.1895120965        4.0839630754       11.9006726614
  C        24.8298055988        5.1139726019       12.5875178669
  C        24.4804285301        6.4619882712       12.3681042185
  C        23.4929163890        6.7408322797       11.4039745458
  C        22.8484583586        5.7109145196       10.7170367993
  C        25.1142189115        7.5590738408       13.1472195911
  C        25.0879509937        7.5526635964       14.5706741003
  C        24.3825868801        6.5565636011       15.3175791204
  C        26.5584135993       17.8227658365        5.7895771611
  C        25.2596469700       17.8812211230        5.0652987172
  C        25.0188618733       18.8729086561        4.1013069922
  C        23.8113093509       18.8982532646        3.4087478254
  C        22.8126032063       17.9356624827        3.6583452947
  C        23.0489420545       16.9688396993        4.6536933175
  C        24.2577303047       16.9375992280        5.3445891575
  C        21.5476210556       17.9250891162        2.8866503626
  C        21.5567228481       17.9096410690        1.4647242286
  C        22.7655095802       17.7788041526        0.7108277172
  C        34.4428176403       17.1820958808        5.9614103161
  C        35.7321105865       17.1146105209        5.2158480308
  C        35.9264055638       16.1424929599        4.2204261005
  C        37.1006601270       16.1244863370        3.4719096932
  C        38.1195766095       17.0722593924        3.6981280776
  C        37.9284176827       18.0214899979        4.7223275612
  C        36.7500814086       18.0492682328        5.4649935628
  C        39.3679477134       17.0762472430        2.8994075128
  C        39.3533331181       17.0699729732        1.4749887002
  C        38.1427390998       17.1871916093        0.7257605551
  C        20.3137860840       17.9376606496        0.7513357019
  C        20.3211922253       17.9255716938        3.5641377543
  C        34.3260531984       17.1712687932       10.3114418097
  C        35.6363258644       17.0579474186       11.0011056864
  C        35.8520747763       16.1078264288       12.0134923310
  C        37.0659134619       16.0709515396       12.6944095491
  C        38.0982742086       16.9854246168       12.3947207281
  C        37.8891450629       17.8989527018       11.3418097612
  C        36.6782200096       17.9387718449       10.6586802377
  C        39.3586090160       17.0160586561       13.1694847522
  C        39.3490395107       17.0420226776       14.5943194311
  C        38.1411790144       17.1744819535       15.3477395967
  C        35.1424247960       26.6218384505       15.3188853807
  C        35.2044840311       26.6373973228       12.5077224335
  C        26.5623510929       17.8211564436       10.3240655455
  C        25.2485626784       17.8787147847       11.0205371987
  C        25.0079969536       18.8657002379       11.9886399195
  C        23.7911909660       18.8990081222       12.6625865757
  C        22.7902381354       17.9434523141       12.3954032621
  C        23.0270089888       16.9828240101       11.3952346518
  C        24.2427605061       16.9485374553       10.7166969846
  C        21.5271619511       17.9274008917       13.1665732837
  C        21.5458464545       17.9087340626       14.5880010632
  C        22.7599623042       17.7775180402       15.3344103848
  C        14.0459212702       17.8324069553       10.2843166702
  C        15.3528290589       17.8982464217       11.0017150878
  C        15.6107615178       18.9117329278       11.9376207766
  C        16.8213274817       18.9397920062       12.6265835318
  C        17.8058000695       17.9570480895       12.4007932100
  C        17.5537293881       16.9690862509       11.4306546731
  C        16.3427350457       16.9366873174       10.7429513540
  C        19.0720672984       17.9414808075       13.1721075490
  C        19.0640978735       17.9336813995       14.5939454596
  C        17.8527359705       17.8369478036       15.3483309724
  C        46.7935198087       17.2124453261       10.1554177604
  C        45.4912620016       17.1295404277       10.8863087778
  C        45.2877249344       16.1469700301       11.8691814817
  C        44.0988551331       16.1063694368       12.5948122101
  C        43.0741380065       17.0470107252       12.3647362825
  C        43.2732181284       18.0055574297       11.3509220473
  C        44.4638751265       18.0507327449       10.6261467640
  C        41.8196981063       17.0429862898       13.1598801435
  C        41.8349312271       17.0480716845       14.5859088585
  C        43.0464600310       17.1574442969       15.3359792128
  C        20.3077091352       17.9366922587       15.3070322549
  C        20.2978846134       17.9229582056       12.4948879795
  C        46.7834949840       17.2321845375        5.8837692715
  C        45.4839696111       17.1247594069        5.1604336599
  C        45.2750511239       16.1310845465        4.1908078160
  C        44.0886860155       16.0967506083        3.4617769814
  C        43.0765591040       17.0520494367        3.6833496510
  C        43.2781892377       18.0174206197        4.6889163388
  C        44.4660446527       18.0587130314        5.4128101911
  C        41.8254241220       17.0600005393        2.8924241648
  C        41.8380925064       17.0551799226        1.4684359520
  C        43.0481416756       17.1577353938        0.7147432376
  C        46.1530970536       26.6372789981        0.7261800261
  C        46.1617411925       26.6557975246        3.5358334869
  C        14.0397836215       17.8286101931        5.7066493794
  C        15.3540725800       17.8977284695        5.0070262413
  C        15.6250829457       18.9201589417        4.0858708354
  C        16.8494831778       18.9569456385        3.4237087359
  C        17.8271327899       17.9700316098        3.6584881351
  C        17.5617917845       16.9736572257        4.6149469303
  C        16.3397556742       16.9367190797        5.2810694670
  C        19.0934611972       17.9496376546        2.8914346626
  C        19.0754233509       17.9370043052        1.4703627587
  C        17.8582053407       17.8383552102        0.7246591688
  C        28.8187717235       14.1669261909       10.4520686189
  C        28.2329447313       12.9862857947       11.1456356083
  C        28.9577637165       12.2459480060       12.0918719734
  C        28.3699966114       11.1468687636       12.7162870669
  C        27.0441726733       10.7645847254       12.4228857658
  C        26.3428011538       11.4884400993       11.4417572947
  C        26.9267209568       12.5842011822       10.8145917502
  C        26.3734726215        9.6713125301       13.1660840459
  C        26.3377211617        9.6973750655       14.5868595313
  C        26.8250974399       10.8124174181       15.3401932192
  C        32.2015550264       21.2000613962       10.1885018993
  C        32.7950429292       22.3711740201       10.8929248651
  C        32.0511721832       23.0513100993       11.8715398042
  C        32.6220498495       24.0960356464       12.5907829481
  C        33.9541817420       24.4921354973       12.3575201361
  C        34.6779844179       23.8345846225       11.3437433188
  C        34.1096711658       22.7848860173       10.6241559217
  C        34.5825797772       25.5664758792       13.1606414309
  C        34.5618405083       25.5362993116       14.5839797423
  C        34.0537050154       24.4184671394       15.3175582130
  C        25.7169186808        8.6187337155       15.2950296995
  C        25.7441279308        8.6210259838       12.4819028717
  C        32.0674245632       21.1673560011        5.8776022952
  C        32.6565230506       22.3236394504        5.1452701169
  C        31.9391292255       22.9606939820        4.1190886245
  C        32.5200976900       23.9984718689        3.3928773924
  C        33.8333442832       24.4324903057        3.6680448059
  C        34.5307031801       23.8073489504        4.7216845684
  C        33.9563073189       22.7645896418        5.4446899674
  C        34.4780146375       25.5182738213        2.8891656341
  C        34.5076444559       25.5122456240        1.4648176721
  C        34.0272602797       24.4070748562        0.6949292855
  C        40.5944369419       17.0393198320        0.7542929578
  C        40.5987100614       17.0894608319        3.5666292558
  C        28.7263049436       14.0602258057        5.8154886597
  C        28.1197260095       12.9168293212        5.0785200123
  C        28.8620977109       12.1969298282        4.1289981343
  C        28.2762115016       11.1442663434        3.4306567785
  C        26.9340781556       10.7802731353        3.6601837421
  C        26.2094630471       11.4841614890        4.6404634994
  C        26.7914923781       12.5406382045        5.3374360201
  C        26.2918813503        9.6931729409        2.8827581092
  C        26.2978213325        9.7090520570        1.4612719807
  C        26.8053224201       10.8187816630        0.7158819441
  C        18.1351935122        3.1806243287       10.3171575923
  C        17.4054111647        4.2777113438       11.0154170267
  C        16.3902234524        3.9990728049       11.9434692584
  C        15.7422239950        5.0388499163       12.6070043434
  C        16.0932344511        6.3827441975       12.3668705824
  C        17.0818583640        6.6525248180       11.4023644058
  C        17.7312380344        5.6153871828       10.7372832380
  C        15.4688838486        7.4903457711       13.1300166065
  C        15.4844362552        7.4897393749       14.5517400006
  C        16.1859942085        6.4961475602       15.3049402266
  C        42.9458100481       31.8594417566       10.0728582732
  C        43.6461672848       30.7718698252       10.8166715248
  C        44.5915736313       31.0931704530       11.8029013618
  C        45.1971894977       30.0875789951       12.5505349423
  C        44.8708333913       28.7344874863       12.3356113004
  C        43.9451091824       28.4202306723       11.3222625437
  C        43.3363320386       29.4253730021       10.5742127326
  C        45.4884183461       27.6552153580       13.1388043244
  C        45.4926507011       27.6809861984       14.5604947519
  C        44.8054590529       28.6889630182       15.3071136462
  C        14.8557301380        8.5623770828       15.2641294383
  C        14.8735388571        8.5621311841       12.4514637054
  C        42.9464046581       31.9613840235        5.8090508155
  C        43.6914182195       30.8853695026        5.0955081837
  C        44.6559616911       31.1912408656        4.1231038077
  C        45.2773555164       30.1716184237        3.4053649750
  C        44.9536130314       28.8212719162        3.6430554294
  C        44.0201485291       28.5236833572        4.6538938404
  C        43.3919630098       29.5404594538        5.3661009638
  C        45.5625995557       27.7238947786        2.8577808841
  C        45.5330762099       27.7174021836        1.4364765026
  C        44.8266897837       28.7075756021        0.6835138491
  C        35.1163660192       26.6084751621        0.7654403159
  C        35.0823635108       26.5796796934        3.5770883318
  C        18.1485305306        3.2467012417        5.7068969193
  C        17.4297951458        4.3435142701        4.9976468531
  C        16.4150512719        4.0521081392        4.0735872408
  C        15.7666441446        5.0826402573        3.3981272830
  C        16.1205968523        6.4280203295        3.6212124589
  C        17.1113622276        6.7115000109        4.5791189350
  C        17.7591015282        5.6827057534        5.2590046730
  C        15.4901113726        7.5236639663        2.8486635692
  C        15.4958943748        7.5069124247        1.4275109409
  C        16.1924270781        6.5050927475        0.6807576424
  H        10.6723857461       12.4661867377        3.9041869304
  H        11.6944081047       10.5511805349        2.6623517078
  H        15.3912786050       11.1681331707        4.7723878050
  H        14.3507785535       13.0710276015        6.0176485912
  H        13.3761750872       11.6309259980        1.2011985243
  H        50.3225085076       22.7490719978        3.9878571520
  H        49.3193206392       24.6233982783        2.6815975124
  H        45.6408427896       24.1597365261        4.8624403374
  H        46.6618021866       22.2888481063        6.1708201210
  H        47.6295479352       23.5758863361        1.2461347145
  H        14.8715467663        8.5879706619        4.6085082740
  H        50.2870708681       22.7031233085       12.0596228398
  H        49.2691309709       24.5760058524       13.3597431784
  H        45.6097687326       24.1082900907       11.1468404919
  H        46.6518081514       22.2528261378        9.8326756232
  H        47.6077001227       23.5519380128       14.7967375712
  H        40.5847141096       17.0013114072       11.4062756711
  H        48.6866801425       14.0952775303        7.7997691779
  H        10.6807008983       12.4667035012       12.0932018142
  H        11.6884968490       10.5244686346       13.2969014706
  H        15.3926144624       11.1580292024       11.2055284074
  H        14.3643786169       13.0867510198        9.9903030514
  H        13.3754370958       11.6216524700       14.7529406555
  H        47.9296645160       14.2199566973        9.7109078337
  H        47.7800958907       14.3748806256        6.4949078375
  H        49.0796965436       18.5504907451       10.8662553531
  H        10.4150446712       14.1345404928        7.9990094150
  H        24.4711414683        3.0312840708        3.9031242715
  H        25.6016811470        4.8916868989        2.6696274729
  H        23.2149244926        7.7540539713        4.8171416666
  H        22.1044735762        5.8837842958        6.0532928116
  H        23.8075755892        5.7980274806        1.2269406493
  H        36.3480601503       32.1699535504        3.9865069279
  H        35.2103310053       30.3401327970        2.7306556221
  H        37.4882876368       27.4270384002        4.9272894383
  H        38.6056346286       29.2694029017        6.1933998561
  H        36.9901776375       29.4361925330        1.3201062793
  H        25.6939855596        8.6116047377        4.6403222109
  H        36.4567660391       32.2302782323       12.1255249062
  H        35.3563991309       30.4144619235       13.4275029610
  H        37.5636768179       27.4805383728       11.1847483087
  H        38.6381361427       29.3078148344        9.8693310748
  H        37.0299935626       29.4602467588       14.8736563081
  H        46.1088467201       26.5873098737       11.3854731877
  H        44.6679597098       35.1159016968        7.8139165163
  H        24.4646331343        3.0452707778       12.0699771728
  H        25.6152248286        4.8815391158       13.3036492915
  H        23.2084456191        7.7754579771       11.2230190727
  H        22.0703547825        5.9272004812        9.9884695138
  H        23.8185486815        5.8011656993       14.7781662705
  H        44.9526341177       34.3897124803        9.6949454059
  H        44.9005807545       34.2064852487        6.4904585544
  H        40.6658320208       33.2086754993       10.8531675648
  H        23.1507532799        1.9575729397        8.0041176212
  H        25.7867655203       19.6185371048        3.9084907120
  H        23.6268242515       19.6713699655        2.6660904811
  H        22.2867044228       16.2185426856        4.8533637056
  H        24.4542265771       16.1775316030        6.0969369505
  H        23.7036442045       17.6456461341        1.2419974966
  H        35.1389953108       15.4142655967        4.0390542517
  H        37.2446445635       15.3648343341        2.7066651205
  H        38.7031604367       18.7634663224        4.9044999156
  H        36.5897125805       18.8024607092        6.2330042453
  H        37.2073647887       17.3241985038        1.2608242482
  H        20.3228934908       17.9601803713        4.6521213603
  H        35.0532250656       15.4145201166       12.2666608722
  H        37.2266142826       15.3294616926       13.4737951770
  H        38.6744033539       18.6111444829       11.0968271102
  H        36.5049126692       18.6660624685        9.8693040642
  H        37.2034061710       17.3036611921       14.8156237062
  H        35.1876583307       26.6637669013       11.4197320197
  H        28.5268509529       21.0557484444        7.8928135869
  H        25.7904393754       19.5926481840       12.1958165797
  H        23.6015068651       19.6682484533       13.4079577049
  H        22.2612996157       16.2393341232       11.1838154185
  H        24.4419596206       16.1945227115        9.9590537822
  H        23.6939014227       17.6421152999       14.7968621274
  H        28.9796826071       21.6845047659        9.7820038258
  H        29.1760464210       21.7059314710        6.5502066645
  H        32.0880243057       18.5011724782       11.0417884705
  H        27.3776622494       19.0096687627        8.0617637703
  H        14.8515771289       19.6712602644       12.1102409401
  H        17.0190327026       19.7300801738       13.3476168745
  H        18.3052583256       16.2036055523       11.2486178167
  H        16.1341182300       16.1609997540       10.0100119898
  H        16.9123293329       17.7291047612       14.8158598797
  H        46.0802230831       15.4271706340       12.0606242677
  H        43.9511683892       15.3362636930       13.3488819786
  H        42.4951951621       18.7425124584       11.1620296004
  H        44.6263402714       18.8094493295        9.8638368679
  H        43.9842445662       17.2741925702       14.8004755642
  H        20.2958840744       17.9582412456       11.4069312259
  H        46.0578869271       15.3975520682        4.0116934135
  H        43.9319846411       15.3227812636        2.7135700878
  H        42.5052027499       18.7620053529        4.8676099274
  H        44.6384751882       18.8234862614        6.1662680987
  H        43.9873453044       17.2740997278        1.2478587876
  H        46.1983533370       26.6821220305        4.6232940490
  H        52.7410578123       21.0625586961        8.1945273579
  H        14.8669225568       19.6794310547        3.9074500905
  H        17.0623730483       19.7529262383        2.7133892201
  H        18.3098994856       16.2056802463        4.8002796500
  H        16.1172348405       16.1570313543        6.0054407073
  H        16.9219584991       17.7317656647        1.2643367370
  H        52.3221059612       21.6734190324        6.2947062491
  H        52.0133697168       21.7024451255        9.4954387977
  H        49.0660821300       18.6075226187        5.2047664787
  H        13.2467584428       19.0166871737        7.9760223381
  H        29.9784101265       12.5421979928       12.3245157630
  H        28.9343704699       10.5726472156       13.4478480790
  H        25.3178750493       11.2079147544       11.2080660740
  H        26.3790113543       13.1604438873       10.0735391505
  H        27.1889069830       11.6858959205       14.8078072683
  H        31.0275413878       22.7401808229       12.0656124913
  H        32.0378101494       24.6185885190       13.3449825825
  H        35.7080734168       24.1295158804       11.1542224510
  H        34.6784705599       22.2549251906        9.8636670922
  H        33.7083273939       23.5460701218       14.7703083777
  H        25.7872248494        8.6040545143       11.3941896371
  H        30.9319931681       22.6182667199        3.8911395021
  H        31.9534748351       24.4888133999        2.6043247944
  H        35.5470587115       24.1260954601        4.9437626563
  H        34.5068438548       22.2637730556        6.2377265424
  H        33.6616623294       23.5257815437        1.2142723079
  H        40.6022972591       17.0664225885        4.6548063213
  H        32.5248472481       14.0976198289        8.3130764133
  H        29.9014728356       12.4668141264        3.9564071722
  H        28.8578282911       10.5852744273        2.7008748595
  H        25.1711584413       11.2158686460        4.8243789788
  H        26.2267803496       13.1018313201        6.0781334243
  H        27.1535721118       11.6964015544        1.2528572147
  H        33.2446851478       14.0626987738        6.4846921497
  H        33.4004007684       14.3316862415        9.7091959871
  H        32.1546952211       18.4969939610        5.1504318947
  H        30.2026591375       14.1296135205        8.0969084006
  H        16.1187707482        2.9624822859       12.1302838515
  H        14.9531674460        4.8191623033       13.3230058664
  H        17.3633733679        7.6855416921       11.2086706478
  H        18.5126525609        5.8183120133       10.0088496542
  H        16.7523235165        5.7386214871       14.7714728435
  H        44.8278132328       32.1402333626       11.9772160318
  H        45.9369249318       30.3412459019       13.3066321024
  H        43.6824163903       27.3781682117       11.1520918798
  H        42.5997873206       29.1899826156        9.8094937166
  H        44.2298826163       29.4365860547       14.7688465276
  H        14.8494624124        8.5452679703       11.3632512436
  H        44.8995031967       32.2339027944        3.9315748744
  H        46.0241973334       30.4127478541        2.6520363675
  H        43.7631390193       27.4839678816        4.8454823357
  H        42.6454263788       29.3176094985        6.1244961838
  H        44.2679324542       29.4703058247        1.2180615113
  H        35.0330855004       26.5916320043        4.6643938277
  H        36.6051321414       35.1336206308        8.1807766412
  H        16.1443852839        3.0124831085        3.9034810311
  H        14.9746072576        4.8555882978        2.6877849901
  H        17.3941215698        7.7470725520        4.7565927124
  H        18.5413348634        5.8933269497        5.9844049637
  H        16.7637876683        5.7547544795        1.2191273421
  H        36.2788733284       34.4818120138        6.2732492566
  H        36.3801890390       34.2091021468        9.5000617755
  H        40.5782119486       33.2011661108        5.1548943661
  H        17.4715506447        1.9468867778        7.9741879684
  H        30.1689039330       19.7928110877       12.4748655665
  H        28.6214624162       18.8046016260        3.8662833664
  H        30.7628389220       15.1316609948        3.8002033182
  H        27.8434853558       19.7465473966       14.9071929046
  H        29.6293998446       15.8077203339       14.1230769612
  H        32.5220723811       17.5242352467        1.4916030028
  H        18.8522572908        0.8688395810       12.3348535629
  H        40.5280357928       35.2292551329        3.9522847049
  H        42.3224034994       34.4172108751        3.5919964524
  H        22.0880625421        0.6918621949       12.3517367780
  H        11.5969881516       18.7123452782       12.3820504823
  H        52.2648595383       18.4313275809        3.6781975954
  H        49.2546493145       16.4778546920        3.5852340820
  H        10.1504223555       15.7984606470       12.2923480583
  H        50.8499146899       17.6925849110        3.9541815710
  H        10.0457513698       17.3949913741       12.0519235330
  H        20.2132573670        0.0021836685       12.0423211181
  H        39.1831103867       36.1240810104        3.6863046858
 Ni        30.4347293297       17.9669128246        2.6617022780
 Ni        30.9047018199       16.7706977497       -0.0782460298
 Ni        29.4198450735       18.5487863953        0.4138938245
 Ni        29.4649256194       18.1869480383       14.0750237342
  O        10.6498271360       14.3651099337        5.4857436683
  O        12.6130830341       14.6573648430        6.5839116748
  O        49.1472742832       16.8460354206        7.9900142727
  O        50.3499510535       20.9364231262        5.6483347050
  O        48.3483534361       20.5931846683        6.6661256155
  O        11.0510329294       17.0539859130        6.5005988063
  O        50.3207585848       20.8817589245       10.4068660848
  O        48.3465523277       20.5866556101        9.3270958171
  O        49.5431099928       18.2484040946       10.0683648918
  O        12.3584820216       18.6246440362        7.9998055877
  O        48.6930499514       14.1486506068        6.7512008585
  O         8.2095652267       14.2107347343        9.3228315904
  O        10.7350843397       14.5067406182       10.6643857228
  O        12.5717113319       14.5826970189        9.3286033318
  O        22.8444087503        2.0433532733        5.4868736360
  O        21.6052495006        3.5923260775        6.5899464906
  O        42.0577413056       34.1372322150        7.9793699251
  O        37.9810093855       33.1335469387        5.5718141863
  O        39.2181993663       31.5752308331        6.6665580078
  O        20.3082745558        1.0398377651        6.5022619426
  O        38.0233374969       33.1825441355       10.4167468239
  O        39.2179713122       31.5824489623        9.3280519877
  O        40.6521233458       33.7693051688       10.0604658010
  O        18.2563205852        1.3757919258        7.9969088055
  O        44.6221270927       35.1005698888        6.7587429056
  O        24.2052588460        0.0001460187        9.3209253923
  O        22.7541764125        2.0603053391       10.5855883157
  O        21.6264832872        3.5987935772        9.3466258865
  O        27.4553940759       18.6904599857        5.4969297802
  O        26.6958366540       16.9096375346        6.6714750191
  O        30.6616896876       19.2787649835        8.0769693071
  O        33.5826691887       16.2601668729        5.7412409351
  O        34.2667729735       18.1749814519        6.7480741218
  O        29.6011510938       16.9946047759        6.5817274115
  O        33.3837772177       16.3437277882       10.6572930360
  O        34.2145710415       18.0862592328        9.4294719828
  O        31.6076464970       18.2383536439       10.2395551413
  O        30.2961453352       15.0966650673        8.0882294490
  O        28.5487568951       21.0192036671        6.8415723393
  O        28.5575849712       20.8946560065        9.4044090033
  O        27.4526263771       18.6666382462       10.6611432592
  O        26.6923032602       16.9214399779        9.4135334690
  O        13.1468989190       18.6937662076       10.5864694099
  O        13.9184746152       16.9162082816        9.4044960649
  O        50.5948500435       19.3500027357        8.0208790124
  O        47.6790054755       16.3280541649       10.4183718184
  O        46.9469240378       18.1751432726        9.3276650079
  O        11.0684685065       17.0159790507        9.4896946079
  O        47.6756864640       16.3359128399        5.6525760934
  O        46.9240842255       18.2354045294        6.6624987781
  O        49.5681302482       18.3177595129        5.9825311602
  O        10.3183738894       15.1004450696        7.9971720490
  O        52.6706686867       21.0279893010        9.2417876417
  O        12.1467313783       20.8913104196        6.6733342856
  O        13.1050029534       18.6142814238        5.3262149228
  O        13.9551032037       16.9863599162        6.6655172175
  O        29.9880450870       14.5900178727       10.8106010242
  O        28.1054456016       14.6560893538        9.5096925369
  O        32.1103030117       16.7877202596        8.0820279640
  O        31.0042282624       20.8761499964       10.4942956690
  O        32.9474572224       20.5834505588        9.3392706874
  O        29.5610811695       17.0649144160        9.5782039052
  O        30.8403957685       20.8735021636        5.6600590093
  O        32.8393076891       20.5168522732        6.6648620439
  O        31.6423851442       18.1722359665        5.9102142964
  O        28.2663461653       18.6179300866        8.0693283002
  O        32.4887765064       14.2020398560        9.3946610095
  O        32.3714338052       14.1410681237        6.9055385434
  O        29.9083158999       14.4347331701        5.4835843685
  O        28.0352625459       14.5842648104        6.7507568125
  O        17.8892378967        1.9663330259       10.6627451860
  O        18.9563491623        3.5270441261        9.4080792277
  O        39.1687358189       34.1388043496        7.9971692061
  O        43.2801294127       33.0590424691       10.3316245750
  O        42.0343525058       31.5065374977        9.2416142422
  O        20.3173574580        1.0363609329        9.4805905432
  O        43.2760194467       33.1825770113        5.5749835653
  O        42.0051781085       31.5842074173        6.5830940723
  O        40.5791392012       33.7752476382        5.9360292488
  O        22.3672147911        1.3849524461        7.9983743090
  O        36.6728631310       35.0994828659        9.2334312527
  O        16.4457484533        0.0638648430        6.6682077205
  O        17.9364813730        2.0431395326        5.3265092347
  O        18.9192501475        3.5929858224        6.6660972634
  O        29.5717261364       18.8349993570        4.0874268544
  O        29.7328432457       18.9829857058       12.1514352101
  O        31.5540443244       15.6690303437        4.0061646069
  O        31.7699671492       16.9265966748        1.6600245450
  O        30.3295370243       16.4855985246       14.1552632085
  O        28.8130486664       19.7154089211       14.9907010051
  O        39.4568128694       35.2437191182        4.0020744589
  O        19.1405325951        0.0042828995       11.9906417398
  O        41.9696517301       35.1727344616        4.0873342319
  O        21.6913841546       -0.0692119661       11.8957817642
  O        51.3647247087       18.6144124627        4.0054140626
  O        10.7509225965       18.7471940245       11.9050396586
  O        50.0795628104       16.4127494232        4.0916761565
  O         9.5242862311       16.4832173614       11.9912032531
 Zr         9.2957623564       16.0531607641        6.1821092387
 Zr        49.8347451106       16.0075176491        9.7470080708
 Zr        22.0725171818        0.0287525869        6.1896774626
 Zr        42.4605259759       35.1531634193        9.8011766631
 Zr        29.5770110995       19.0422559011        6.2554751583
 Zr        29.5420449699       19.1394719411        9.9869137324
 Zr        11.0368450514       19.0524630537        9.8277194381
 Zr        11.0425293229       19.1551271011        6.2517010116
 Zr        31.3300492564       16.0874139672        9.8058911139
 Zr        31.4043074714       15.9438084681        6.3037045426
 Zr        18.6002311988       -0.0032920234        9.7635842406
 Zr        18.5062397260       -0.0087549692        6.2133059829
 Zr        12.3004780529       16.3236711653        7.9907148386
 Zr        48.6136147370       18.8321537887        8.0108452225
 Zr        20.3150380633        2.4728935005        7.9921337354
 Zr        40.6421697873       32.6855133352        7.9784418660
 Zr        28.3166119972       16.3395263251        8.0768840568
 Zr        32.5958026466       18.8312513697        8.0607042895
  H        29.2214668418       17.5878804769        1.6041959391
  H        31.7964425801       16.1484033613        3.1449722890
