     566
 i =       90, E =     -4712.2289271351
  C        11.8593598299       14.0529267979        5.7415789884
  C        12.4564811599       12.8898121813        5.0234496741
  C        11.7050789970       12.1719920546        4.0807275112
  C        12.2813247719       11.1098086368        3.3882627842
  C        13.6214773327       10.7390450509        3.6168622002
  C        14.3542562816       11.4414379170        4.5915016483
  C        13.7814877066       12.5063245252        5.2832009645
  C        14.2609464496        9.6485123161        2.8433333753
  C        14.2562510926        9.6565261518        1.4216282270
  C        13.7433592712       10.7587926657        0.6677404987
  C        49.1253853282       21.2323692976        5.8794740299
  C        48.5481101894       22.4001482541        5.1526690596
  C        49.2977488509       23.0668184292        4.1708835020
  C        48.7307877438       24.1058413171        3.4376295357
  C        47.4005363395       24.5081390874        3.6668835768
  C        46.6700043593       23.8600031983        4.6811876226
  C        47.2325211862       22.8151801081        5.4106390416
  C        46.7704710269       25.5858684802        2.8695464532
  C        46.7595690289       25.5562576127        1.4477562913
  C        47.2591122693       24.4409949103        0.7042606895
  C        14.8599252035        8.5700701534        0.7083179232
  C        14.8915808188        8.5964351214        3.5199086139
  C        49.1124127201       21.2027676545       10.1445263526
  C        48.5270051797       22.3640782044       10.8720918831
  C        49.2660736864       23.0247987535       11.8651089043
  C        48.6895896809       24.0592004622       12.5967086915
  C        47.3591789516       24.4559311208       12.3584286418
  C        46.6388260057       23.8109284728       11.3349331301
  C        47.2125567012       22.7751447283       10.6030892191
  C        46.7206992276       25.5309366244       13.1494083907
  C        46.7322393717       25.5272773721       14.5711180371
  C        47.2470543446       24.4277841729       15.3274896513
  C        40.6371121845       17.1580585242       15.3090376873
  C        40.6512864085       17.1711314287       12.5002711388
  C        11.8827579611       14.0863474631       10.2854164719
  C        12.4717639232       12.9102204778       10.9894896154
  C        11.7143484818       12.1777681499       11.9162505420
  C        12.2806613690       11.0951572721       12.5846564171
  C        13.6190994533       10.7205369047       12.3521284514
  C        14.3568613074       11.4352138691       11.3904958628
  C        13.7917083575       12.5165444463       10.7178534500
  C        14.2526361456        9.6237928243       13.1225447395
  C        14.2518717227        9.6439920463       14.5443842910
  C        13.7425218074       10.7531600350       15.2914837167
  C        22.5085793289        3.2425778528        5.7530529914
  C        23.2177239539        4.3478985478        5.0504803651
  C        24.2103549603        4.0684104348        4.1000502009
  C        24.8320425506        5.1089996036        3.4154958819
  C        24.4755204523        6.4492276701        3.6627600522
  C        23.5107800402        6.7202826934        4.6496596057
  C        22.8844401736        5.6816004149        5.3323872554
  C        25.0772150910        7.5570155712        2.8884258267
  C        25.0474166299        7.5538660755        1.4674994375
  C        24.3447964500        6.5558784397        0.7204253321
  C        38.2980886121       31.9271921020        5.8510073113
  C        37.5571730611       30.8389893101        5.1484587351
  C        36.5922274375       31.1466654204        4.1765391109
  C        35.9616690015       30.1296662603        3.4647813810
  C        36.2799707873       28.7775391852        3.7007614203
  C        37.2145050880       28.4774341637        4.7102697600
  C        37.8490494794       29.4934282077        5.4216476881
  C        35.6683984744       27.6901208702        2.9015623790
  C        35.7032445363       27.7071927070        1.4791270817
  C        36.4141583537       28.7081900646        0.7452317056
  C        25.6698820925        8.6254853993        0.7503265946
  C        25.6763258776        8.6280925593        3.5618647322
  C        38.3288156421       31.9605520284       10.1594257298
  C        37.6079760362       30.8891014378       10.9063590098
  C        36.6767597725       31.2012292477       11.9092468759
  C        36.0626352696       30.1861614375       12.6407766267
  C        36.3638716164       28.8313289609       12.3943038781
  C        37.2752339674       28.5293106715       11.3633040935
  C        37.8915325761       29.5409525492       10.6329390558
  C        35.7464371756       27.7346716634       13.1766132983
  C        35.7427501514       27.7303100546       14.5997972399
  C        36.4318005116       28.7200425980       15.3681642125
  C        46.1344516727       26.6200492200       15.2812249867
  C        46.0870056598       26.5794340527       12.4733262219
  C        22.4594969824        3.2552446926       10.2568041771
  C        23.1510581430        4.3653469031       10.9792742921
  C        24.1527945802        4.0818442158       11.9209507213
  C        24.7772521273        5.1140602525       12.6167448855
  C        24.4196134525        6.4585180309       12.3926913034
  C        23.4412639044        6.7354107843       11.4193079290
  C        22.8120897421        5.7034238505       10.7241855413
  C        25.0457285435        7.5581027693       13.1677229105
  C        25.0320891469        7.5537808065       14.5901769547
  C        24.3356526605        6.5569146370       15.3436640862
  C        26.5398721442       17.8712060785        5.8316995150
  C        25.2432068761       17.9280987892        5.1005032069
  C        24.9973705156       18.9349765189        4.1535430211
  C        23.7985514413       18.9553691815        3.4453427772
  C        22.8108412010       17.9748927020        3.6662531944
  C        23.0515380715       16.9914674153        4.6442879196
  C        24.2536002307       16.9628449233        5.3473685773
  C        21.5485179199       17.9649216429        2.8889576150
  C        21.5579739093       17.9597399145        1.4668174339
  C        22.7682321925       17.8521076998        0.7114837178
  C        34.4914773462       17.2355484419        5.9553112656
  C        35.7720011910       17.1961907794        5.1975658485
  C        35.9730431979       16.2226460982        4.2064581339
  C        37.1428908113       16.2188320750        3.4534392669
  C        38.1442164646       17.1832759487        3.6767929400
  C        37.9458810480       18.1381951028        4.6920313459
  C        36.7707512435       18.1515580590        5.4386248026
  C        39.3933092089       17.1896362104        2.8847648533
  C        39.3842696120       17.1934597960        1.4633382756
  C        38.1758001681       17.3142055653        0.7080293417
  C        20.3139791182       17.9754996699        0.7540440585
  C        20.3222530590       17.9536849566        3.5665518904
  C        34.4807928295       17.2473091948       10.1730708534
  C        35.7819280761       17.1770418523       10.8926414647
  C        35.9851309484       16.2089786901       11.8874072719
  C        37.1693875816       16.1935620762       12.6170333710
  C        38.1769326013       17.1458572794       12.3708811829
  C        37.9800086540       18.0881310320       11.3441242148
  C        36.7934289064       18.1092177306       10.6171317770
  C        39.4217229240       17.1665816479       13.1668667314
  C        39.3990067402       17.1836722367       14.5879865890
  C        38.1828796923       17.3090456134       15.3309378555
  C        35.1042051506       26.6530665720       15.3005330825
  C        35.1594505862       26.6636607583       12.4904593294
  C        26.5574351754       17.8345324041       10.3330367872
  C        25.2441173480       17.8946658495       11.0247249760
  C        24.9786269379       18.9168279730       11.9493106899
  C        23.7624154977       18.9498688812       12.6233946730
  C        22.7835324320       17.9626790049       12.3947754353
  C        23.0411282545       16.9681221706       11.4337668436
  C        24.2583852528       16.9311462283       10.7585018681
  C        21.5217470984       17.9504921001       13.1679389982
  C        21.5437028865       17.9516722942       14.5893300094
  C        22.7611495566       17.8484251536       15.3346968355
  C        14.0448694112       17.8319728419       10.2848366642
  C        15.3506151103       17.8975785610       11.0042359639
  C        15.6067622632       18.9125234914       11.9389230637
  C        16.8163771661       18.9420912288       12.6291302760
  C        17.8013565273       17.9594573161       12.4054885722
  C        17.5506854507       16.9690899793       11.4375382140
  C        16.3404708239       16.9352843384       10.7485187098
  C        19.0678449263       17.9502715721       13.1758661155
  C        19.0619638333       17.9525959537       14.5976951204
  C        17.8518530670       17.8500275411       15.3531631896
  C        46.8062787257       17.2184080330       10.1562956430
  C        45.5164265711       17.1578227212       10.8984034116
  C        45.3086160410       16.1822748900       11.8853814283
  C        44.1267876545       16.1696049953       12.6204988679
  C        43.1255373659       17.1325909686       12.3891070424
  C        43.3297790417       18.0862036875       11.3740205700
  C        44.5121425952       18.1029986704       10.6401697025
  C        41.8748095203       17.1533966000       13.1779248937
  C        41.8828410350       17.1611017943       14.5991146949
  C        43.0935088969       17.2562091004       15.3542220241
  C        20.3062322127       17.9706835139       15.3097122024
  C        20.2927260727       17.9295144712       12.4971814791
  C        46.8052506684       17.2035578306        5.8546496018
  C        45.4990112156       17.1222909369        5.1464402671
  C        45.2687785230       16.1369101076        4.1744396141
  C        44.0781614245       16.1295888793        3.4540316924
  C        43.0912344734       17.1068483663        3.6870750063
  C        43.3118516503       18.0618212325        4.6968345300
  C        44.5029806491       18.0739693910        5.4149957072
  C        41.8450473303       17.1461745838        2.8943415665
  C        41.8677230740       17.1566813775        1.4737041564
  C        43.0863838151       17.2518338207        0.7309934847
  C        46.1521109621       26.6364461547        0.7259871695
  C        46.1607535981       26.6551495326        3.5356389412
  C        14.0400646992       17.8297458407        5.7073311889
  C        15.3547810443       17.9032980078        5.0087171417
  C        15.6224655961       18.9283737858        4.0895375715
  C        16.8468690381       18.9706671310        3.4279200810
  C        17.8278742294       17.9868771553        3.6615738951
  C        17.5657650361       16.9876310520        4.6158933004
  C        16.3434797873       16.9451436244        5.2814470659
  C        19.0942125073       17.9738981958        2.8945387665
  C        19.0759596957       17.9637050238        1.4736354333
  C        17.8587296286       17.8548946449        0.7293702679
  C        28.8101537838       14.0796411878       10.3994372751
  C        28.1930449876       12.9091107875       11.0769694039
  C        28.9069806998       12.1814952570       12.0413268257
  C        28.3031220662       11.1112193752       12.6945791916
  C        26.9720570688       10.7451674458       12.4079510964
  C        26.2820447569       11.4513977003       11.4063265466
  C        26.8827410992       12.5225845779       10.7512900952
  C        26.2973840976        9.6703297427       13.1687888699
  C        26.2778606476        9.7001066868       14.5897180617
  C        26.7749252968       10.8149492938       15.3369182916
  C        32.1716220668       21.2366620470       10.1491995201
  C        32.7601166772       22.4048704884       10.8661021456
  C        32.0113643548       23.0779680354       11.8445391414
  C        32.5777801063       24.1211310990       12.5706221999
  C        33.9094051169       24.5204148122       12.3422934635
  C        34.6396830709       23.8662374277       11.3313980800
  C        34.0759976780       22.8181902796       10.6061272573
  C        34.5354463221       25.5958349063       13.1457644081
  C        34.5169522228       25.5690104545       14.5684946730
  C        34.0058973211       24.4537870204       15.3041067215
  C        25.6666550589        8.6217647119       15.3060812356
  C        25.6641131446        8.6189132317       12.4932756867
  C        32.0812959844       21.2033775922        5.8761317493
  C        32.6470178953       22.3605668328        5.1283369094
  C        31.9141184677       23.0040979600        4.1186856216
  C        32.4857840639       24.0457183053        3.3903486466
  C        33.8034724221       24.4740395613        3.6499123828
  C        34.5165940210       23.8428735915        4.6880195739
  C        33.9514101469       22.7978109561        5.4124155354
  C        34.4434472675       25.5595251951        2.8699195656
  C        34.4687744935       25.5507973776        1.4469678421
  C        33.9819040612       24.4454155356        0.6810868053
  C        40.6292314123       17.1594789927        0.7529194836
  C        40.6169763530       17.1832727283        3.5624175900
  C        28.7663515747       14.0213801937        5.8319807818
  C        28.1430814503       12.8794739056        5.1049030751
  C        28.8661769497       12.1916978257        4.1177243718
  C        28.2716663419       11.1514346011        3.4095371708
  C        26.9391635459       10.7708316696        3.6652999091
  C        26.2340865891       11.4435162773        4.6810282416
  C        26.8255400214       12.4872283449        5.3894358319
  C        26.2873299047        9.6920776968        2.8868314567
  C        26.2739656318        9.7114258934        1.4652036311
  C        26.7715663100       10.8215969877        0.7131889344
  C        18.1351320952        3.1806658670       10.3171074982
  C        17.4054390426        4.2777949505       11.0155623397
  C        16.3897430648        3.9991810217       11.9430038637
  C        15.7417017544        5.0390075786       12.6064323838
  C        16.0933094463        6.3827833768       12.3667207603
  C        17.0825935096        6.6525594089       11.4029359947
  C        17.7319800275        5.6153695738       10.7379547327
  C        15.4689236886        7.4903879953       13.1297960871
  C        15.4845659860        7.4898275962       14.5514971016
  C        16.1861774046        6.4961921889       15.3045884146
  C        42.9457735672       31.8593681503       10.0727871698
  C        43.6460577638       30.7716526924       10.8166241972
  C        44.5918456142       31.0927845856       11.8025291219
  C        45.1974183159       30.0871094924       12.5501163649
  C        44.8706305818       28.7341034124       12.3353660806
  C        43.9445506269       28.4199572515       11.3223229641
  C        43.3358602007       29.4252180627       10.5743468580
  C        45.4879907148       27.6546904804       13.1385737651
  C        45.4921681277       27.6804050861       14.5602702700
  C        44.8052948818       28.6886171395       15.3068524187
  C        14.8558611722        8.5624437737       15.2638920625
  C        14.8734891444        8.5620664604       12.4512352412
  C        42.9463173142       31.9613212020        5.8089310970
  C        43.6912693099       30.8851554520        5.0953641559
  C        44.6560509004       31.1908786000        4.1231653673
  C        45.2773098658       30.1711763062        3.4053853980
  C        44.9531021013       28.8209080177        3.6428153500
  C        44.0193980144       28.5234311470        4.6534550563
  C        43.3913927938       29.5403003350        5.3657005479
  C        45.5619260627       27.7233925315        2.8575622323
  C        45.5323871450       27.7167724574        1.4362488952
  C        44.8264835414       28.7072530097        0.6832552584
  C        35.0819697379       26.6426305108        0.7464006066
  C        35.0556987622       26.6159448937        3.5573023255
  C        18.1484266461        3.2467336978        5.7066003808
  C        17.4297627787        4.3434989981        4.9971743087
  C        16.4146440592        4.0520782683        4.0735768705
  C        15.7662872945        5.0826112133        3.3980721323
  C        16.1208581760        6.4278693625        3.6207236948
  C        17.1121484698        6.7114006806        4.5780248410
  C        17.7598322246        5.6825900313        5.2579147261
  C        15.4903470312        7.5235241685        2.8482758639
  C        15.4961059722        7.5069002061        1.4271478723
  C        16.1926517520        6.5050931858        0.6804010701
  H        10.6733363001       12.4669953577        3.9028921789
  H        11.6952370656       10.5521183750        2.6609571053
  H        15.3909075289       11.1659182795        4.7739938822
  H        14.3505392489       13.0686417009        6.0196535011
  H        13.3766874239       11.6310755967        1.2010216046
  H        50.3202001052       22.7462722373        3.9856455067
  H        49.3169865006       24.6205402273        2.6794514828
  H        45.6407514561       24.1612465560        4.8649381373
  H        46.6617572327       22.2908769208        6.1735537288
  H        47.6269700882       23.5743009574        1.2458979103
  H        14.8718219906        8.5875456943        4.6082119544
  H        50.2861240465       22.7020002242       12.0600509659
  H        49.2678632699       24.5745961619       13.3603432674
  H        45.6093363540       24.1079401715       11.1459539275
  H        46.6517395489       22.2528155395        9.8316387172
  H        47.6054283948       23.5505094053       14.7965663377
  H        40.6555987514       17.1321098037       11.4127136291
  H        48.6836908367       14.0966719110        7.8006838503
  H        10.6811700519       12.4675700860       12.0941868237
  H        11.6889237438       10.5253378439       13.2978592972
  H        15.3919527579       11.1564920024       11.2039270831
  H        14.3638284677       13.0852872288        9.9886629837
  H        13.3758002269       11.6218309422       14.7528660154
  H        47.9305099672       14.2184302247        9.7121949363
  H        47.7798279630       14.3585109213        6.4865068145
  H        49.0800927509       18.5517965473       10.8641945958
  H        10.4171818156       14.1335611501        8.0004549178
  H        24.4718030451        3.0300452485        3.9088401510
  H        25.6026068056        4.8943187548        2.6782576866
  H        23.2294107015        7.7529598253        4.8449875726
  H        22.1168907580        5.8790225934        6.0766267368
  H        23.7827650225        5.7990728429        1.2598930922
  H        36.3609162038       32.1909930387        3.9805261342
  H        35.2143578386       30.3741950070        2.7130576634
  H        37.4693126785       27.4370302299        4.9015077114
  H        38.5957364347       29.2668899753        6.1791638354
  H        36.9778738234       29.4570652777        1.2938332218
  H        25.7155179009        8.6054994354        4.6493823188
  H        36.4536518631       32.2462208548       12.1123706354
  H        35.3344143056       30.4360292644       13.4092312068
  H        37.5221204921       27.4882598136       11.1656430439
  H        38.6159680723       29.3102835753        9.8555724511
  H        37.0100918495       29.4776327611       14.8470543543
  H        46.1083825984       26.5867561304       11.3852886630
  H        44.6681665445       35.1160816237        7.8139584548
  H        24.4322999326        3.0442623976       12.0891931078
  H        25.5574865901        4.8881969409       13.3404782482
  H        23.1540349778        7.7691704987       11.2381510521
  H        22.0404190345        5.9131531152        9.9871153144
  H        23.7660807762        5.8014420113       14.8102282901
  H        44.9535658291       34.3901655088        9.6950553948
  H        44.9017174965       34.2067373063        6.4906292616
  H        40.6654598166       33.2081994093       10.8527517222
  H        23.1500852277        1.9572916260        8.0052122259
  H        25.7560753106       19.6957074474        3.9858106055
  H        23.6113620806       19.7395935584        2.7150453821
  H        22.2981440900       16.2265906931        4.8208773997
  H        24.4542018627       16.1880738682        6.0834448430
  H        23.7094625043       17.7386547576        1.2420056990
  H        35.1951020049       15.4826895395        4.0347894769
  H        37.2988232060       15.4592627511        2.6905345433
  H        38.7124370247       18.8904733798        4.8659534370
  H        36.5987804759       18.9036153858        6.2051067578
  H        37.2374691202       17.4441477830        1.2398908747
  H        20.3241716046       17.9814511740        4.6547163304
  H        35.1944218939       15.4898776334       12.0873419850
  H        37.3273188381       15.4410917178       13.3864288597
  H        38.7532326281       18.8289118437       11.1514433749
  H        36.6175128050       18.8550420841        9.8456029291
  H        37.2497600014       17.4344574399       14.7891121740
  H        35.1411544306       26.6884350266       11.4024985456
  H        28.4888256101       21.1001764933        8.0496641021
  H        25.7368133146       19.6766536192       12.1232892614
  H        23.5556992789       19.7435713701       13.3379498605
  H        22.2914524456       16.2006767061       11.2527321159
  H        24.4747510673       16.1492567362       10.0347104646
  H        23.6970727638       17.7318181131       14.7960943865
  H        29.0256669563       21.7047514148        9.7503724585
  H        29.0620898570       21.8444552106        6.6443639897
  H        32.0824705573       18.5140162533       11.0109989624
  H        27.3799037432       19.0101504667        8.0505297937
  H        14.8470437751       19.6720495038       12.1091030240
  H        17.0133128638       19.7337316277       13.3488773524
  H        18.3025003372       16.2033299994       11.2578484557
  H        16.1325269816       16.1582444941       10.0168059365
  H        16.9119674089       17.7333711456       14.8215758764
  H        46.0902829332       15.4490803641       12.0695990658
  H        43.9640883276       15.4071564261       13.3790686925
  H        42.5629912957       18.8364708027       11.1927349307
  H        44.6891188837       18.8537049579        9.8736711176
  H        44.0343928430       17.3649577619       14.8224404095
  H        20.2896032805       17.9509348542       11.4088766903
  H        46.0384662127       15.3918382004        3.9870288038
  H        43.8990457926       15.3647539911        2.7015886450
  H        42.5534965973       18.8197467220        4.8816816483
  H        44.6967737401       18.8287944634        6.1731626911
  H        44.0219750606       17.3566922505        1.2725103486
  H        46.1974645427       26.6816497664        4.6230912058
  H        52.7407481730       21.0622662718        8.1942551101
  H        14.8615979350       19.6851991443        3.9123243615
  H        17.0571683677       19.7685130676        2.7189164090
  H        18.3164086665       16.2218339679        4.8000356039
  H        16.1232701162       16.1633183216        6.0042570929
  H        16.9239970781       17.7420264493        1.2703927397
  H        52.3207241575       21.6730352650        6.2952971839
  H        52.0124985180       21.7017945310        9.4951760941
  H        49.0702158320       18.6071301117        5.2025131834
  H        13.2469872091       19.0166154835        7.9764221312
  H        29.9313638430       12.4709276145       12.2652039558
  H        28.8567861626       10.5460040926       13.4410830170
  H        25.2541625109       11.1773965293       11.1779185276
  H        26.3450199482       13.0900042324        9.9959617693
  H        27.1334090446       11.6874991572       14.7991049615
  H        30.9901816303       22.7562086067       12.0339322683
  H        31.9911210034       24.6402934894       13.3252978903
  H        35.6704353260       24.1629402502       11.1484164829
  H        34.6482676130       22.2884983367        9.8479955191
  H        33.6586303716       23.5816698227       14.7574628714
  H        25.7003588789        8.5973650868       11.4055180969
  H        30.9019805189       22.6665853118        3.9069850006
  H        31.9101532485       24.5437682570        2.6132415994
  H        35.5365840451       24.1594335811        4.8958272762
  H        34.5107172559       22.2904930159        6.1948253532
  H        33.6161824344       23.5663709005        1.2041638068
  H        40.6117498001       17.1490732359        4.6501605466
  H        32.5312182680       14.1006720621        8.3641721445
  H        29.8935738470       12.4880095960        3.9202064630
  H        28.8385154373       10.6160469042        2.6510547194
  H        25.2033342263       11.1609096574        4.8848076656
  H        26.2755728883       13.0257964850        6.1573767187
  H        27.1270785307       11.6987976184        1.2462489000
  H        33.3545720276       14.0768705143        6.4773114394
  H        33.4086363802       14.4449458482        9.6725154332
  H        32.0093733215       18.4538159872        5.1413584797
  H        30.2083002101       14.1984437066        8.0396397036
  H        16.1179854235        2.9625950119       12.1294032726
  H        14.9522552196        4.8194519489       13.3220448868
  H        17.3646580772        7.6855253522       11.2097827125
  H        18.5139065541        5.8181161265       10.0100178331
  H        16.7524981249        5.7387240456       14.7710211971
  H        44.8283969876       32.1398091487       11.9766786895
  H        45.9374327234       30.3406858912       13.3059732262
  H        43.6814861947       27.3779569183       11.1523450874
  H        42.5990150021       29.1899770559        9.8098711432
  H        44.2301234174       29.4365077204       14.7685236726
  H        14.8493514110        8.5451052583       11.3630266269
  H        44.8999371557       32.2335007352        3.9318396890
  H        46.0243270167       30.4122456017        2.6522091637
  H        43.7619774934       27.4837739881        4.8448052098
  H        42.6446913706       29.3175759826        6.1239705851
  H        44.2680609263       29.4702361124        1.2177899484
  H        35.0099758886       26.6270469527        4.6447213413
  H        36.6051282832       35.1338685017        8.1806219194
  H        16.1436624313        3.0124560840        3.9039490482
  H        14.9739778819        4.8556592355        2.6880022557
  H        17.3955053888        7.7469174520        4.7548550330
  H        18.5425876036        5.8930775904        5.9827913947
  H        16.7640272723        5.7547775370        1.2187951350
  H        36.2789378162       34.4818300961        6.2734450530
  H        36.3808995057       34.2090079488        9.4997172329
  H        40.5786696266       33.2012859789        5.1541627274
  H        17.4706436276        1.9468677070        7.9739559344
  H        28.8023272354       18.9438329825       12.4141402599
  H        28.6984192389       18.9078397343        3.8597398384
  H        31.2164911631       15.5423506835        3.6845346401
  H        31.4934476619       15.5465436217       12.5371396222
  H        29.6376075367       15.2799333513       14.4057002635
  H        32.1196418819       16.7306307611        1.5086171134
  H        18.8530609316        0.8688169636       12.3351060643
  H        40.5281762144       35.2291030264        3.9522505289
  H        42.3227910594       34.4178229279        3.5911600103
  H        22.0876668472        0.6921357944       12.3513757365
  H        11.5968121288       18.7123503367       12.3820707744
  H        52.2636880818       18.4337012615        3.6738753654
  H        49.2525929994       16.4799740439        3.5939744693
  H        10.1501968130       15.7984468829       12.2928593256
  H        50.8500783896       17.6905784462        3.9528145345
  H        10.0454129664       17.3945195449       12.0517031685
  H        20.2141940319        0.0019874606       12.0420519070
  H        39.1835620896       36.1243406192        3.6864381776
 Ni        30.3556849765       17.5756736790        2.8327968457
 Ni        30.3908403253       16.8677346595       -0.0862734092
 Ni        29.5095717819       18.6462412226        0.8343785255
 Ni        30.1837894017       17.2851306659       13.3247759136
  O        10.6504409571       14.3645458816        5.4853805838
  O        12.6132737045       14.6571658352        6.5837587406
  O        49.1477355677       16.8422043517        7.9864638440
  O        50.3492232465       20.9365596757        5.6487279701
  O        48.3473206329       20.5913718288        6.6655759159
  O        11.0526668786       17.0528372966        6.5002084718
  O        50.3206310476       20.8814723544       10.4066442704
  O        48.3464934970       20.5861239886        9.3264876869
  O        49.5437329574       18.2479804195       10.0671362623
  O        12.3587372827       18.6245370036        7.9997138233
  O        48.6936215848       14.1486253538        6.7516202544
  O         8.2095426294       14.2100667408        9.3222634789
  O        10.7353189171       14.5066722190       10.6643096812
  O        12.5718392691       14.5826836000        9.3285915943
  O        22.8440555029        2.0423479272        5.4875926796
  O        21.6041446455        3.5913740889        6.5910474684
  O        42.0577721091       34.1368735658        7.9790280951
  O        37.9813012072       33.1363035978        5.5723490167
  O        39.2171252370       31.5749173738        6.6655994371
  O        20.3082941839        1.0393753508        6.5018110805
  O        38.0243598012       33.1851883443       10.4154867538
  O        39.2180764901       31.5827985360        9.3276237162
  O        40.6521120528       33.7689877250       10.0601792949
  O        18.2555957105        1.3760792274        7.9967752439
  O        44.6222422449       35.1005199671        6.7587439947
  O        24.2053757481        0.0000195016        9.3208402802
  O        22.7528722315        2.0578550637       10.5837274664
  O        21.6237634904        3.5954210259        9.3414937105
  O        27.4189661364       18.7686848429        5.5737564799
  O        26.6950318406       16.9173848108        6.6713591442
  O        30.6307933262       19.3410701505        8.0695437106
  O        33.6661367986       16.2766350749        5.7514382564
  O        34.3033944718       18.2348666177        6.7347777426
  O        29.4521481970       16.9872000658        6.4106161259
  O        33.6255156807       16.3285758956       10.4020802078
  O        34.3010341983       18.2513046598        9.4006299507
  O        31.6463693326       18.3119481784       10.1640562305
  O        30.3261038212       15.1620131468        8.0786129302
  O        28.5143157271       21.0896999877        6.9225124591
  O        28.5145194131       20.9527872526        9.4035312807
  O        27.4531232208       18.6792348906       10.6589259052
  O        26.6865718124       16.9268924321        9.4254388725
  O        13.1464466864       18.6939700293       10.5863744391
  O        13.9184567953       16.9162356678        9.4046303766
  O        50.5960034163       19.3494699060        8.0195792008
  O        47.6843181276       16.3268937132       10.4167696449
  O        46.9532873096       18.1764062042        9.3233620038
  O        11.0689871935       17.0159383296        9.4895849400
  O        47.6928933985       16.3181014919        5.5769657398
  O        46.9585756642       18.1751914372        6.6654811253
  O        49.5710487038       18.3170455409        5.9808673126
  O        10.3188718693       15.0993141596        7.9968566145
  O        52.6706331515       21.0280143093        9.2416707208
  O        12.1465993508       20.8912101498        6.6731040917
  O        13.1047797846       18.6144337328        5.3263633077
  O        13.9558049348       16.9866129281        6.6652376669
  O        29.9865766936       14.4364942085       10.7298861332
  O        28.0851037031       14.6505865283        9.4986271780
  O        32.1412091668       16.8571955043        8.0770440712
  O        30.9564780013       20.9396343102       10.4124908783
  O        32.9371563042       20.6039135792        9.3362542669
  O        29.5684127425       17.0716539401        9.5032265856
  O        30.8470014609       20.8925784467        5.6623446510
  O        32.8658380797       20.5868134994        6.6663040218
  O        31.6080282422       18.2470786753        6.0037725141
  O        28.2706529343       18.6234593501        8.0739162013
  O        32.4992865075       14.2070869154        9.4038468024
  O        32.4505050812       14.1446804374        6.8271982314
  O        29.9491118945       14.3691340072        5.5046467542
  O        28.0479064557       14.5847960601        6.7446519125
  O        17.8891303364        1.9664074597       10.6628482933
  O        18.9560699472        3.5270764543        9.4080919150
  O        39.1685758031       34.1385682684        7.9970939839
  O        43.2801937072       33.0588596091       10.3316467898
  O        42.0343139278       31.5064756818        9.2415731415
  O        20.3173071180        1.0361815693        9.4805688251
  O        43.2760404511       33.1823745319        5.5748694833
  O        42.0051674426       31.5840829049        6.5830450889
  O        40.5789628667       33.7748695692        5.9356451482
  O        22.3669762509        1.3841029893        7.9980587859
  O        36.6727210566       35.0996762316        9.2332836153
  O        16.4455643951        0.0640756925        6.6682386702
  O        17.9363995926        2.0431778506        5.3263750673
  O        18.9188213036        3.5931236559        6.6658887729
  O        29.6111043694       18.7617415651        4.1693420661
  O        29.6978008555       18.7582323034       12.0751534498
  O        31.2590662551       16.3417857763        4.2426023148
  O        31.4284771482       16.3433256510       11.9786013475
  O        31.1986767107       16.4124201236        1.5755525092
  O        30.4645615690       15.8025425440       14.3983928162
  O        39.4568391022       35.2437667118        4.0019804133
  O        19.1409912531        0.0042746512       11.9906014613
  O        41.9695721541       35.1727045424        4.0871246072
  O        21.6912461777       -0.0693129870       11.8958264494
  O        51.3646866340       18.6144100795        4.0051834412
  O        10.7509136933       18.7473042221       11.9048268650
  O        50.0844933655       16.4130972191        4.0886833185
  O         9.5242117305       16.4829949196       11.9910367446
 Zr         9.2990711091       16.0491737283        6.1772312283
 Zr        49.8361229929       16.0063203459        9.7453438478
 Zr        22.0730261968        0.0288327487        6.1893091548
 Zr        42.4606889433       35.1526861184        9.8008143212
 Zr        29.5741287259       19.2055093583        6.3075123812
 Zr        29.5734201713       19.1440672293        9.9313923456
 Zr        11.0366372521       19.0529266751        9.8275943249
 Zr        11.0437997663       19.1539195121        6.2500250414
 Zr        31.3500668751       16.0993565439        9.9188490429
 Zr        31.5112918597       15.9441236207        6.3132329285
 Zr        18.6007086414       -0.0024068846        9.7635456874
 Zr        18.5063918133       -0.0085016602        6.2133931813
 Zr        12.3002588846       16.3235628384        7.9906725192
 Zr        48.6178765051       18.8282408347        8.0074876330
 Zr        20.3140985875        2.4721663357        7.9907679893
 Zr        40.6424890311       32.6859559321        7.9781259775
 Zr        28.2816063623       16.2928822202        8.1342076268
 Zr        32.6327237515       18.8371521177        8.0551758827
  H        28.9078581545       17.7486911109        1.8677183488
  H        29.0990174721       16.7267955715        5.5365363180
