     569
 i =      181, E =     -4729.4825004497
  C        11.8584555726       14.0534685309        5.7415689736
  C        12.4559183073       12.8903717722        5.0232731864
  C        11.7043721686       12.1718556003        4.0812083951
  C        12.2806623595       11.1096016037        3.3888300619
  C        13.6210371661       10.7393424329        3.6169399211
  C        14.3540245572       11.4424507378        4.5908847202
  C        13.7811940264       12.5074407574        5.2824249231
  C        14.2605761137        9.6486813488        2.8435479733
  C        14.2560264140        9.6566276683        1.4218386821
  C        13.7429479640       10.7587704277        0.6678994302
  C        49.1264159830       21.2334944888        5.8797554703
  C        48.5495328843       22.4012499584        5.1526126825
  C        49.2997207065       23.0688580834        4.1719193090
  C        48.7327552823       24.1079216587        3.4386724269
  C        47.4020384382       24.5091726827        3.6669519409
  C        46.6708611221       23.8599280454        4.6800561347
  C        47.2333437408       22.8150725521        5.4094589455
  C        46.7718829443       25.5868923311        2.8696560390
  C        46.7610933049       25.5573801625        1.4478969197
  C        47.2610796327       24.4422933735        0.7044341517
  C        14.8599100625        8.5702374166        0.7085956224
  C        14.8911919510        8.5966373971        3.5202059192
  C        49.1128682205       21.2034827045       10.1453590259
  C        48.5274418336       22.3647425309       10.8725218633
  C        49.2667769992       23.0258092311       11.8651285770
  C        48.6903642553       24.0603130263       12.5965737434
  C        47.3597756306       24.4566691897       12.3586149621
  C        46.6392012796       23.8113595300       11.3354692115
  C        47.2128406178       22.7754938244       10.6036997344
  C        46.7213486968       25.5316655562       13.1496030096
  C        46.7332859663       25.5281527033       14.5712981303
  C        47.2487979883       24.4289726539       15.3276747668
  C        40.6299337713       17.0967159427       15.3339227593
  C        40.6561854118       17.1608257351       12.5252832567
  C        11.8827049174       14.0864332260       10.2854130061
  C        12.4718294479       12.9103034436       10.9895120391
  C        11.7143666302       12.1775565951       11.9160024509
  C        12.2807595820       11.0949961795       12.5844526807
  C        13.6193511874       10.7207032257       12.3522577236
  C        14.3571844259       11.4356952883       11.3909094372
  C        13.7919388892       12.5169587680       10.7182050347
  C        14.2529525789        9.6239822375       13.1227322694
  C        14.2519903749        9.6441208886       14.5445833897
  C        13.7423003205       10.7531639862       15.2916419561
  C        22.5138416945        3.2433208466        5.7539730358
  C        23.2354334211        4.3453575932        5.0554252074
  C        24.2348453604        4.0576916312        4.1140330252
  C        24.8704653169        5.0917821858        3.4317721680
  C        24.5222806306        6.4358576249        3.6708554029
  C        23.5507247982        6.7152481452        4.6492162684
  C        22.9105615382        5.6827068635        5.3300933954
  C        25.1359466472        7.5373712865        2.8940359609
  C        25.1076522863        7.5301316742        1.4724573992
  C        24.4006984669        6.5332673224        0.7279559007
  C        38.2968994188       31.9274292229        5.8524678349
  C        37.5534241730       30.8391619451        5.1531506463
  C        36.5881581859       31.1464162382        4.1814964829
  C        35.9564041978       30.1288401365        3.4716213454
  C        36.2741394184       28.7770119427        3.7093932216
  C        37.2078531063       28.4773213761        4.7196495542
  C        37.8436674285       29.4938324816        5.4290491634
  C        35.6654148305       27.6886438088        2.9091678240
  C        35.7098124456       27.7028141244        1.4873493766
  C        36.4217624156       28.7050278828        0.7555406483
  C        25.7332481013        8.5981274514        0.7517241240
  C        25.7390996168        8.6090503848        3.5634506208
  C        38.3308132023       31.9605422637       10.1610268002
  C        37.6160416359       30.8875130632       10.9114339043
  C        36.6832181301       31.1961434346       11.9137845101
  C        36.0752875149       30.1787036758       12.6473917404
  C        36.3849641158       28.8252846128       12.4037421590
  C        37.2988862351       28.5266961117       11.3741428366
  C        37.9084024540       29.5405171434       10.6413569805
  C        35.7721206035       27.7257585650       13.1856862863
  C        35.7639057946       27.7220247116       14.6085624168
  C        36.4457873827       28.7155531648       15.3788448679
  C        46.1353285136       26.6208255839       15.2814067077
  C        46.0872062562       26.5798820732       12.4735206886
  C        22.4616169505        3.2545133474       10.2571934433
  C        23.1596273667        4.3604949264       10.9807104398
  C        24.1641122279        4.0683425030       11.9170399165
  C        24.7974962598        5.0941793018       12.6141777048
  C        24.4462944428        6.4413973596       12.3970851733
  C        23.4642816651        6.7269951804       11.4297385204
  C        22.8263730461        5.7012516302       10.7329112018
  C        25.0839300875        7.5353908026       13.1709341145
  C        25.0814896721        7.5283138572       14.5937784980
  C        24.3864287859        6.5333610371       15.3510692231
  C        26.5609809982       17.8298512355        5.7806115831
  C        25.2613052491       17.8898682009        5.0586194641
  C        25.0169516502       18.8900015755        4.1041575560
  C        23.8094784967       18.9176395162        3.4114253025
  C        22.8141574187       17.9489649576        3.6514303132
  C        23.0540215677       16.9735397060        4.6375270349
  C        24.2625721422       16.9400805731        5.3288090332
  C        21.5491598667       17.9391869687        2.8790960456
  C        21.5577820475       17.9301670233        1.4569371353
  C        22.7671341522       17.8150958825        0.7010755190
  C        34.4449373598       17.1803813180        5.9577940535
  C        35.7302878715       17.1177864958        5.2078381269
  C        35.9227719760       16.1524426863        4.2067202016
  C        37.0979290400       16.1358338323        3.4605486668
  C        38.1152921213       17.0809144718        3.6970001353
  C        37.9257634346       18.0256880002        4.7244541465
  C        36.7471640892       18.0503896033        5.4654881666
  C        39.3677102323       17.0860709341        2.9070561960
  C        39.3656870908       17.0989754836        1.4845507243
  C        38.1602817327       17.2167384789        0.7238003772
  C        20.3139338179       17.9506493351        0.7448969146
  C        20.3229514944       17.9320567006        3.5573646596
  C        34.5028260595       17.2334383315       10.1563988714
  C        35.7926638920       17.1663904082       10.8934726326
  C        36.0062977801       16.1703390575       11.8585977792
  C        37.1857933962       16.1520047282       12.5962755558
  C        38.1806940983       17.1259604076       12.3858317883
  C        37.9726256016       18.0992540511       11.3904886281
  C        36.7896100536       18.1253750517       10.6576061798
  C        39.4237767707       17.1366669248       13.1865264902
  C        39.3947541848       17.1252530703       14.6077655165
  C        38.1740923170       17.2274748869       15.3465749972
  C        35.1276801125       26.6424809409       15.3078562415
  C        35.1924706450       26.6516185218       12.4979599596
  C        26.5579506177       17.8458534360       10.3103784978
  C        25.2390076983       17.9033244166       10.9999971603
  C        24.9813556122       18.9114750022       11.9417772888
  C        23.7680553680       18.9389143076       12.6222991817
  C        22.7838852784       17.9592635129       12.3829422263
  C        23.0339576559       16.9792298799       11.4051972395
  C        24.2485242814       16.9482197486       10.7237762412
  C        21.5230808770       17.9411927907       13.1584005042
  C        21.5439713677       17.9308022882       14.5796818384
  C        22.7603520910       17.8160010116       15.3245635532
  C        14.0446992281       17.8322959619       10.2835535211
  C        15.3511239498       17.8981145149       11.0006859580
  C        15.6085637694       18.9124016039       11.9355739959
  C        16.8190996305       18.9407717790       12.6240596658
  C        17.8027369726       17.9575763039       12.3978569323
  C        17.5511044327       16.9684817711       11.4290707792
  C        16.3400325305       16.9357551757       10.7419942620
  C        19.0691587361       17.9445541718       13.1674874852
  C        19.0625695345       17.9386977864       14.5889728724
  C        17.8520656216       17.8357599254       15.3438567115
  C        46.8050350670       17.2204324889       10.1613177891
  C        45.5187246837       17.1619094455       10.9128171488
  C        45.3165719437       16.1855837962       11.9007669038
  C        44.1383272091       16.1685724181       12.6422278408
  C        43.1314808169       17.1280670332       12.4183295133
  C        43.3317842903       18.0852267832       11.4048802311
  C        44.5106668974       18.1060308158       10.6641237586
  C        41.8783756822       17.1352498857       13.2068263016
  C        41.8792030027       17.1182696270       14.6289442529
  C        43.0855630510       17.2078820461       15.3914234809
  C        20.3066680731       17.9499289978       15.3006251064
  C        20.2936080516       17.9276421508       12.4882535713
  C        46.7834994139       17.2280241956        5.8926541711
  C        45.4772405636       17.1131849974        5.1854115427
  C        45.2603254736       16.1112696038        4.2271804655
  C        44.0702716972       16.0771109221        3.5049597514
  C        43.0672987269       17.0413733756        3.7242679803
  C        43.2734710835       18.0109102425        4.7234848592
  C        44.4649635366       18.0518399486        5.4405362801
  C        41.8223728099       17.0605140137        2.9255706395
  C        41.8505910865       17.0789263976        1.5046040235
  C        43.0718562635       17.1872514402        0.7679944798
  C        46.1531248534       26.6372789561        0.7261493734
  C        46.1618186694       26.6559254446        3.5357950265
  C        14.0403582542       17.8282343175        5.7058199345
  C        15.3546686177       17.8969773157        5.0046037100
  C        15.6246539540       18.9188187092        4.0824057151
  C        16.8486259615       18.9561312190        3.4192071347
  C        17.8277795374       17.9705230542        3.6537595066
  C        17.5632802040       16.9742839527        4.6106845183
  C        16.3414579179       16.9367730835        5.2777726002
  C        19.0943343767       17.9531227189        2.8859531724
  C        19.0759046857       17.9418898161        1.4647939929
  C        17.8585754778       17.8371161010        0.7200820766
  C        28.8162736003       14.0765298386       10.3918446773
  C        28.2097282480       12.8962457539       11.0662555906
  C        28.9366660395       12.1641183613       12.0179127596
  C        28.3422612059       11.0891021802       12.6728442930
  C        27.0080869955       10.7222908914       12.4009353206
  C        26.3059011698       11.4324460370       11.4104484767
  C        26.8970472450       12.5082275879       10.7534694443
  C        26.3418504526        9.6441558633       13.1655718448
  C        26.3336453543        9.6705658954       14.5866638221
  C        26.8356761449       10.7845553060       15.3313924542
  C        32.1955880299       21.2413136194       10.1428926370
  C        32.7917008873       22.3978971163       10.8681844885
  C        32.0449447641       23.0713282105       11.8479043522
  C        32.6148590877       24.1104159596       12.5762883091
  C        33.9476026091       24.5054548949       12.3483857867
  C        34.6770392774       23.8496350180       11.3380687536
  C        34.1100061559       22.8047560299       10.6106904974
  C        34.5720796498       25.5812755046       13.1523457422
  C        34.5489205720       25.5549042250       14.5746663792
  C        34.0390502657       24.4381958942       15.3093561339
  C        25.7242894970        8.5934493489       15.3068800186
  C        25.7004897799        8.5954570140       12.4935429840
  C        32.0743787614       21.1937183482        5.8731503505
  C        32.6405777238       22.3578772199        5.1310585178
  C        31.9163238653       22.9896409440        4.1082190977
  C        32.4891955786       24.0320022482        3.3811970648
  C        33.8002310646       24.4714049738        3.6544201000
  C        34.5044541060       23.8522461230        4.7056946397
  C        33.9372583500       22.8076215765        5.4293876869
  C        34.4437856725       25.5558536139        2.8752517855
  C        34.4822366756       25.5425496900        1.4526714349
  C        34.0058487287       24.4328664592        0.6860030367
  C        40.6147463033       17.0798434098        0.7786055006
  C        40.5905369607       17.0836669866        3.5880368261
  C        28.7541298396       14.0529578008        5.8156756073
  C        28.1523870980       12.9052198694        5.0837481895
  C        28.8852823563       12.2357698325        4.0911129389
  C        28.3129394033       11.1751229415        3.3941525652
  C        26.9916531736       10.7609755987        3.6599151564
  C        26.2774342699       11.4197987098        4.6786796014
  C        26.8481837689       12.4787427865        5.3807777463
  C        26.3528092800        9.6708488740        2.8856180824
  C        26.3400975653        9.6849353626        1.4634896319
  C        26.8359592950       10.7934313991        0.7074186512
  C        18.1353200080        3.1807345163       10.3170411276
  C        17.4057057646        4.2779211371       11.0155337962
  C        16.3904568615        3.9993294447       11.9434916886
  C        15.7425276667        5.0391557531       12.6070431158
  C        16.0937665385        6.3829815291       12.3669890432
  C        17.0825542875        6.6527198150       11.4026608700
  C        17.7318389609        5.6155295913       10.7375605730
  C        15.4694192663        7.4906223183       13.1300831897
  C        15.4849296695        7.4900759445       14.5518011562
  C        16.1865537201        6.4965296080       15.3050012923
  C        42.9457163429       31.8593478441       10.0728077741
  C        43.6459412696       30.7717115730       10.8167414056
  C        44.5916766540       31.0929645813       11.8026545317
  C        45.1972773836       30.0873734132       12.5503070090
  C        44.8705528567       28.7343491418       12.3356060824
  C        43.9444758733       28.4200747307       11.3226041749
  C        43.3357637627       29.4252581155       10.5745480099
  C        45.4881496810       27.6550803663       13.1387996374
  C        45.4925391824       27.6808911826       14.5604821938
  C        44.8054963386       28.6889772101       15.3070916244
  C        14.8560596579        8.5626417948       15.2641503376
  C        14.8739476809        8.5622890649       12.4514892634
  C        42.9463558065       31.9613592832        5.8089560466
  C        43.6914044673       30.8853070202        5.0954193351
  C        44.6563280224       31.1912127304        4.1234209685
  C        45.2777553380       30.1716276262        3.4056489589
  C        44.9535981467       28.8213352300        3.6429640897
  C        44.0197028499       28.5236622968        4.6533543711
  C        43.3915099476       29.5404238805        5.3655814298
  C        45.5626772285       27.7239820459        2.8577161848
  C        45.5331460138       27.7174264674        1.4364267990
  C        44.8268197379       28.7076541956        0.6834830390
  C        35.0968193034       26.6345593529        0.7534396063
  C        35.0482771203       26.6162304071        3.5635957912
  C        18.1484992606        3.2467650963        5.7066976077
  C        17.4296500160        4.3435998542        4.9975435719
  C        16.4147421316        4.0521962464        4.0736844029
  C        15.7663326355        5.0827363375        3.3982315800
  C        16.1205649735        6.4280480565        3.6211806036
  C        17.1114922267        6.7115521319        4.5788818177
  C        17.7592546171        5.6827346939        5.2587115013
  C        15.4901049177        7.5237186230        2.8486622051
  C        15.4960990561        7.5071270674        1.4275183557
  C        16.1928273829        6.5054047755        0.6808179548
  H        10.6723820880       12.4663316683        3.9039136715
  H        11.6944005639       10.5514034603        2.6620481959
  H        15.3908587270       11.1673781300        4.7730169657
  H        14.3504143353       13.0702417427        6.0183731159
  H        13.3759422707       11.6309116293        1.2011871096
  H        50.3225578729       22.7490814212        3.9874705816
  H        49.3192966913       24.6234213582        2.6812991040
  H        45.6411601156       24.1602541206        4.8627957724
  H        46.6621095812       22.2894751227        6.1711440141
  H        47.6295022037       23.5758760616        1.2461363921
  H        14.8712846598        8.5877810235        4.6085075050
  H        50.2869471333       22.7032353762       12.0598262086
  H        49.2687716117       24.5760341306       13.3598848843
  H        45.6096060564       24.1081598357       11.1467471224
  H        46.6518567899       22.2529759496        9.8324926509
  H        47.6074527562       23.5517955006       14.7967877062
  H        40.6644162134       17.1431004832       11.4371564387
  H        48.6869691286       14.0948444698        7.7999557046
  H        10.6810643142       12.4670722402       12.0936927706
  H        11.6889390756       10.5249519141       13.2974100946
  H        15.3923957681       11.1572593424       11.2045745314
  H        14.3641245674       13.0859032370        9.9892225763
  H        13.3753953299       11.6217270731       14.7529737576
  H        47.9299382677       14.2182155040        9.7106071059
  H        47.7800484169       14.3735897855        6.4950981420
  H        49.0830540715       18.5523661105       10.8673263588
  H        10.4154846677       14.1343247644        7.9987355133
  H        24.4910332963        3.0171750450        3.9274055923
  H        25.6455170640        4.8681290170        2.7018846547
  H        23.2742645712        7.7501973953        4.8396785811
  H        22.1383646222        5.8889990360        6.0672569971
  H        23.8384389500        5.7782163401        1.2696068694
  H        36.3579738530       32.1906629242        3.9837771237
  H        35.2093678129       30.3726442747        2.7193854214
  H        37.4613555661       27.4368880369        4.9124199149
  H        38.5902453909       29.2678541228        6.1868177353
  H        36.9800566190       29.4565758104        1.3060288672
  H        25.7756727505        8.5910336813        4.6511864068
  H        36.4535456494       32.2401470139       12.1147287953
  H        35.3451491861       30.4255628941       13.4150010852
  H        37.5524141235       27.4867983687       11.1789092100
  H        38.6343344818       29.3127132895        9.8645926272
  H        37.0232841251       29.4748576749       14.8593072787
  H        46.1083312232       26.5870821840       11.3854782395
  H        44.6680966663       35.1159175508        7.8139366288
  H        24.4390299629        3.0286706400       12.0796779435
  H        25.5802661924        4.8608672814       13.3327968071
  H        23.1814718747        7.7629269146       11.2540570983
  H        22.0525243409        5.9183739841       10.0001935153
  H        23.8125940571        5.7789951078       14.8206171556
  H        44.9531815814       34.3897177331        9.6946572945
  H        44.9013247940       34.2065937108        6.4905601583
  H        40.6656854984       33.2086159584       10.8529027864
  H        23.1509714087        1.9566879422        8.0053600677
  H        25.7829917262       19.6396138737        3.9194455931
  H        23.6220937671       19.6976149695        2.6766588385
  H        22.2948893849       16.2180748876        4.8293899085
  H        24.4612778364       16.1723989074        6.0727156359
  H        23.7069742206       17.6930364786        1.2317947464
  H        35.1355853555       15.4267210883        4.0171847241
  H        37.2428913566       15.3808545537        2.6909824985
  H        38.7023580218       18.7644120519        4.9115494921
  H        36.5852055923       18.7969295214        6.2395615177
  H        37.2175091987       17.3321617556        1.2510417716
  H        20.3254846734       17.9629654336        4.6454655713
  H        35.2293160711       15.4290803543       12.0288399209
  H        37.3504868293       15.3783725634       13.3429930700
  H        38.7349337328       18.8579411070       11.2260465706
  H        36.6064383326       18.8934187325        9.9098560381
  H        37.2419730606       17.3499735621       14.8021699637
  H        35.1763565428       26.6762015459       11.4099773619
  H        28.5050443375       21.1022429624        7.8601157468
  H        25.7466945975       19.6623334150       12.1243388770
  H        23.5678285100       19.7224272481       13.3499214606
  H        22.2803913395       16.2178464467       11.2147394716
  H        24.4591561138       16.1769908197        9.9868496645
  H        23.6948781368       17.6955087197       14.7844675393
  H        29.0207832618       21.8093844715        9.7270634773
  H        29.2006772081       21.6925852411        6.5314864879
  H        32.0426659612       18.5299898574       10.9487894792
  H        27.3728532674       18.9799402364        8.0849264695
  H        14.8491640222       19.6718660045       12.1074024926
  H        17.0176428121       19.7312083559       13.3446840831
  H        18.3027117575       16.2029260438       11.2477328744
  H        16.1304128429       16.1597571381       10.0097000603
  H        16.9120533033       17.7230661347       14.8116544870
  H        46.0997928972       15.4527803471       12.0799958388
  H        43.9820703372       15.4023566552       13.3983623811
  H        42.5632704515       18.8347901481       11.2277894063
  H        44.6805845864       18.8590984285        9.8981751361
  H        44.0286331161       17.3274450934       14.8657987401
  H        20.2898154811       17.9575936725       11.4001568598
  H        46.0407177807       15.3750555471        4.0487440491
  H        43.9053398208       15.3010011588        2.7607617647
  H        42.5035983130       18.7592616989        4.8996638289
  H        44.6459727510       18.8204412679        6.1879119037
  H        44.0045321743       17.2897248917        1.3150016488
  H        46.1983671546       26.6822986294        4.6232536491
  H        52.7410051749       21.0625830263        8.1946149263
  H        14.8659866929       19.6775777217        3.9038839896
  H        17.0599306171       19.7519815116        2.7082514621
  H        18.3117734933       16.2066965607        4.7961875338
  H        16.1203093689       16.1570762732        6.0026039675
  H        16.9234418042       17.7254829472        1.2606955398
  H        52.3220457870       21.6734461676        6.2947474850
  H        52.0131120738       21.7022136665        9.4954650156
  H        49.0657695972       18.6073994812        5.2046010924
  H        13.2467615249       19.0167510058        7.9755744629
  H        29.9634958288       12.4545257546       12.2301718600
  H        28.9063148749       10.5195615986       13.4083632648
  H        25.2757548206       11.1580915739       11.1927887211
  H        26.3496963450       13.0794635236       10.0078117697
  H        27.1908742837       11.6562811085       14.7901757632
  H        31.0220936078       22.7549652018       12.0365039039
  H        32.0298472595       24.6299017393       13.3319630229
  H        35.7088045118       24.1433825811       11.1560751407
  H        34.6802717966       22.2744421505        9.8514266272
  H        33.6983509797       23.5633617852       14.7628485005
  H        25.7267774370        8.5762567698       11.4054649326
  H        30.9108161576       22.6409796319        3.8831671194
  H        31.9191442402       24.5202803849        2.5938454367
  H        35.5195163879       24.1771576356        4.9244704242
  H        34.4901984334       22.3091969633        6.2219307598
  H        33.6395473660       23.5538051818        1.2086691659
  H        40.5821002444       17.0461629630        4.6757107436
  H        32.5038152963       14.1056589488        7.9020198633
  H        29.9007056136       12.5643414215        3.8810868279
  H        28.8890850646       10.6503203184        2.6352732195
  H        25.2550343929       11.1135758659        4.8901395612
  H        26.2911142205       13.0023797283        6.1538774984
  H        27.1905518041       11.6723042319        1.2380311359
  H        33.3651208203       14.2881572343        6.5261308572
  H        33.4040795220       14.2239546671        9.6461311107
  H        32.0546721303       18.3999009009        5.1089537286
  H        30.1908554831       14.2016802186        8.1897431413
  H        16.1188753448        2.9627460183       12.1301677906
  H        14.9533868627        4.8195331812       13.3229723283
  H        17.3642703231        7.6857054425       11.2090986856
  H        18.5133166116        5.8183118302       10.0091490131
  H        16.7529845663        5.7390850160       14.7715181511
  H        44.8281679230       32.1400105454       11.9767339043
  H        45.9372794802       30.3410047839       13.3061555812
  H        43.6814560787       27.3780538564       11.1526892255
  H        42.5989611718       29.1899263322        9.8100587976
  H        44.2299857216       29.4366320401       14.7687989528
  H        14.8498577314        8.5453231662       11.3632781792
  H        44.9001311452       32.2338709458        3.9322076169
  H        46.0248719878       30.4127720762        2.6525971801
  H        43.7622838552       27.4839719194        4.8445234860
  H        42.6446112385       29.3175767242        6.1236197370
  H        44.2682012357       29.4704636493        1.2180623914
  H        34.9939899632       26.6309185377        4.6505577482
  H        36.6050666587       35.1339238558        8.1807128937
  H        16.1439562585        3.0125693345        3.9037688516
  H        14.9742223803        4.8557202742        2.6879589497
  H        17.3945056105        7.7470969366        4.7561020293
  H        18.5417307915        5.8932636124        5.9838802915
  H        16.7641715074        5.7550953177        1.2192525429
  H        36.2786471056       34.4821832310        6.2733908374
  H        36.3805512609       34.2091568459        9.4997961831
  H        40.5780242802       33.2009568027        5.1543016358
  H        17.4710209699        1.9470219030        7.9740323980
  H        29.3480518701       19.5953282425       12.4756023592
  H        28.7833303477       18.6618159067        3.7397825906
  H        32.1432367109       15.9491008847        3.6438308577
  H        31.2979167655       15.6207428501       12.5315411716
  H        28.5585476271       18.5430654161       14.5203158524
  H        30.3471264989       15.8584566701       14.2732470814
  H        32.4499049345       17.4644654150        1.1797015672
  H        18.8533278633        0.8689882290       12.3352118289
  H        40.5279982246       35.2291454810        3.9522400456
  H        42.3224744448       34.4173789412        3.5914770480
  H        22.0878819303        0.6917928591       12.3513873543
  H        11.5967346816       18.7130772095       12.3825477002
  H        52.2646816106       18.4312117353        3.6774943792
  H        49.2556555049       16.4770290611        3.5841657009
  H        10.1504207301       15.7981724613       12.2925090546
  H        50.8497629558       17.6924278876        3.9542155720
  H        10.0460749289       17.3945564891       12.0520004335
  H        20.2146282701        0.0022230643       12.0420286111
  H        39.1833761592       36.1241174283        3.6861835271
 Ni        30.6525219496       17.5420479353        2.6672261946
 Ni        31.3281671566       15.7856705604        0.1686916254
 Ni        30.2260040301       17.7401556681       -0.0841901624
 Ni        30.4327989791       17.7222325872       13.4056602765
  O        10.6498116066       14.3650479903        5.4857166523
  O        12.6130935131       14.6574123877        6.5838066015
  O        49.1478265500       16.8460202394        7.9896955253
  O        50.3500391017       20.9364579044        5.6483010003
  O        48.3484421094       20.5933522539        6.6659676378
  O        11.0508611735       17.0542596266        6.5005010757
  O        50.3207834453       20.8817600525       10.4068318271
  O        48.3466928672       20.5867405671        9.3270454486
  O        49.5434060685       18.2484623256       10.0683581197
  O        12.3585646399       18.6245794973        7.9995705455
  O        48.6932440359       14.1484798735        6.7512916951
  O         8.2098096028       14.2103617341        9.3225855273
  O        10.7352811827       14.5066905650       10.6643461708
  O        12.5717498332       14.5827132348        9.3285217600
  O        22.8445953265        2.0420389761        5.4873623518
  O        21.6065606819        3.5929280982        6.5886643360
  O        42.0578042628       34.1368878034        7.9788514008
  O        37.9812401589       33.1365379602        5.5724633343
  O        39.2171786426       31.5751084209        6.6656905149
  O        20.3083403421        1.0395778318        6.5019361099
  O        38.0245828398       33.1850898906       10.4156970321
  O        39.2185031605       31.5832061636        9.3273501382
  O        40.6521166237       33.7690479982       10.0600751825
  O        18.2559415128        1.3761669640        7.9967745100
  O        44.6222299033       35.1004986045        6.7587094023
  O        24.2053713457       -0.0000315979        9.3208047592
  O        22.7529911446        2.0565954337       10.5834440725
  O        21.6249281741        3.5965064852        9.3434514057
  O        27.4593468131       18.6934922842        5.4903356459
  O        26.6907862167       16.9143763608        6.6665733982
  O        30.6312678887       19.3402994213        8.0160060182
  O        33.5868178640       16.2553777699        5.7475962852
  O        34.2715297538       18.1738858852        6.7437971728
  O        29.5341770373       17.0034494624        6.5846250669
  O        33.6683892217       16.2757786181       10.3428842024
  O        34.3076142228       18.2430385421        9.4031724656
  O        31.6786429003       18.2601241668       10.0859806828
  O        30.3164879848       15.1639502863        8.1469218584
  O        28.5491345011       21.0267715677        6.8228770907
  O        28.5485688513       21.0235235752        9.4047676172
  O        27.4530272644       18.6840621125       10.6504955414
  O        26.6933354134       16.9253704314        9.4132740065
  O        13.1463279864       18.6939072468       10.5861636194
  O        13.9181043617       16.9160286246        9.4039693761
  O        50.5956083103       19.3503040206        8.0204287912
  O        47.6827744769       16.3271973257       10.4171826189
  O        46.9512572756       18.1759578445        9.3250066639
  O        11.0691719219       17.0157302781        9.4896980373
  O        47.6765221896       16.3353679525        5.6536138992
  O        46.9265264987       18.2355954220        6.6642588589
  O        49.5682961487       18.3178877488        5.9821355741
  O        10.3185107093       15.1002096638        7.9971527204
  O        52.6707362051       21.0280359499        9.2418235990
  O        12.1468121947       20.8913214330        6.6732133848
  O        13.1056014651       18.6141753512        5.3259905654
  O        13.9558228103       16.9866152382        6.6651519409
  O        29.9915353425       14.4395595827       10.7379080364
  O        28.0877037212       14.6512299399        9.4981389268
  O        32.0680873721       16.8524407173        8.0744783660
  O        30.9739979528       20.9588864474       10.4003432367
  O        32.9485711567       20.5966452950        9.3320615654
  O        29.4625414581       17.0091232469        9.7585103612
  O        30.8457898027       20.8778362064        5.6552307178
  O        32.8659349748       20.5838564518        6.6662636992
  O        31.6643648528       18.2499348479        5.9894084333
  O        28.2729181882       18.6157460375        8.0700696309
  O        32.4822269983       14.2133406229        9.3381794420
  O        32.4493297977       14.1432836718        6.8284222757
  O        29.9228645665       14.4331246394        5.4988393410
  O        28.0366124843       14.5824407355        6.7476826783
  O        17.8892296696        1.9664971277       10.6627636475
  O        18.9562962320        3.5271038239        9.4079749786
  O        39.1686215930       34.1386848156        7.9971095423
  O        43.2801826881       33.0588831468       10.3316030405
  O        42.0343273308       31.5064880394        9.2415439230
  O        20.3175371814        1.0366210279        9.4801470740
  O        43.2760323008       33.1824710261        5.5749075548
  O        42.0051970609       31.5841132440        6.5830320582
  O        40.5788522548       33.7747288968        5.9356456964
  O        22.3671446990        1.3844857911        7.9978711610
  O        36.6728113231       35.0996737682        9.2333324221
  O        16.4456217837        0.0641756952        6.6682690741
  O        17.9364287384        2.0432567460        5.3264468246
  O        18.9191994302        3.5931158586        6.6658917030
  O        29.6978634463       18.6087152473        4.0708946227
  O        29.8305758483       18.9725677412       11.9021713802
  O        31.4178894931       16.3505437723        4.1547301882
  O        31.2684819032       16.4782719073       12.0681278509
  O        31.9911409160       16.7007219305        1.5866284335
  O        30.6589854404       14.8902173212       14.5781308712
  O        29.4913370236       18.8328687138       14.5762825882
  O        39.4568072441       35.2436844549        4.0019696858
  O        19.1414086499        0.0045951950       11.9904931436
  O        41.9696626420       35.1726649894        4.0871286452
  O        21.6912470786       -0.0694715701       11.8957547808
  O        51.3647964445       18.6143669556        4.0052929338
  O        10.7509878330       18.7472603953       11.9049874280
  O        50.0800103684       16.4127717514        4.0915926205
  O         9.5245278675       16.4830674766       11.9912024841
 Zr         9.2960135681       16.0529520640        6.1821892042
 Zr        49.8352614391       16.0069190210        9.7465550978
 Zr        22.0728181858        0.0287245024        6.1891401329
 Zr        42.4604864754       35.1524031817        9.8005723515
 Zr        29.5784304748       19.0499337329        6.2091851871
 Zr        29.5901401622       19.2755674400        9.8401623666
 Zr        11.0367637060       19.0523598071        9.8275000491
 Zr        11.0426399997       19.1553141456        6.2511954998
 Zr        31.5038301509       16.0111446775        9.9046353739
 Zr        31.3452644115       16.0394743694        6.2507470717
 Zr        18.6007003572       -0.0023511177        9.7635028893
 Zr        18.5062295866       -0.0086044908        6.2134408202
 Zr        12.3001653091       16.3234589014        7.9903411257
 Zr        48.6152158044       18.8329739810        8.0101034474
 Zr        20.3148528034        2.4726510777        7.9904690074
 Zr        40.6423090679       32.6857561524        7.9779095421
 Zr        28.2808879981       16.2889579077        8.0402046608
 Zr        32.6243418483       18.8305156613        8.0479024564
  H        29.8938487717       18.2308986257        1.4471905382
  H        29.0510828658       16.7969139024       10.6199781111
  H        29.8259907433       14.4265446784       14.7933239919
