     573
 i =      221, E =     -4762.7865158557
  C        11.8584565082       14.0534984950        5.7415784096
  C        12.4559115302       12.8904568886        5.0232559691
  C        11.7043964941       12.1719196211        4.0811764117
  C        12.2807540785       11.1097182874        3.3887792822
  C        13.6211656971       10.7395493201        3.6168569494
  C        14.3541300011       11.4427043898        4.5907881178
  C        13.7812432183       12.5076439328        5.2823530394
  C        14.2607224731        9.6488954590        2.8434639128
  C        14.2560627449        9.6567750864        1.4217530263
  C        13.7429597119       10.7588987706        0.6678024587
  C        49.1265686201       21.2333590166        5.8796459290
  C        48.5497027549       22.4011842549        5.1525531040
  C        49.2997991119       23.0686863921        4.1717287851
  C        48.7328238847       24.1077807835        3.4385206303
  C        47.4022001955       24.5092038989        3.6670139695
  C        46.6711603983       23.8601356057        4.6803318481
  C        47.2336474322       22.8152511478        5.4096815942
  C        46.7719755317       25.5868882639        2.8697282705
  C        46.7610363316       25.5572886782        1.4479711344
  C        47.2609349050       24.4421589557        0.7045105831
  C        14.8599075631        8.5703631716        0.7085034011
  C        14.8914693104        8.5969197496        3.5201133270
  C        49.1129208521       21.2033872480       10.1453272567
  C        48.5274552752       22.3646234072       10.8725886882
  C        49.2667371933       23.0254660721       11.8653785439
  C        48.6903901802       24.0600140992       12.5968250035
  C        47.3599203040       24.4566434542       12.3586798454
  C        46.6394009594       23.8115390930       11.3353615224
  C        47.2129808017       22.7756383895       10.6035873469
  C        46.7215262151       25.5316761029       13.1496558439
  C        46.7332724967       25.5280664633       14.5713550544
  C        47.2486611956       24.4288391767       15.3277494307
  C        40.6163624999       17.1388745942       15.2903820130
  C        40.6253586128       17.1636415174       12.4809233366
  C        11.8826561344       14.0863846065       10.2854335887
  C        12.4717639489       12.9103331713       10.9895193138
  C        11.7142672642       12.1774509284       11.9158848479
  C        12.2807116724       11.0949088340       12.5842971213
  C        13.6193813582       10.7208114410       12.3522228290
  C        14.3572708053       11.4359588714       11.3910401702
  C        13.7919797920       12.5172046280       10.7183596342
  C        14.2529703816        9.6240759815       13.1226596605
  C        14.2519476486        9.6442048197       14.5445002982
  C        13.7422793571       10.7532642501       15.2915460961
  C        22.5070978492        3.2468207622        5.7410346592
  C        23.2076737697        4.3503876580        5.0178694260
  C        24.1985087375        4.0664329467        4.0655489865
  C        24.8199307300        5.1010089674        3.3687880696
  C        24.4688326718        6.4460935796        3.6019183143
  C        23.5006855075        6.7214986724        4.5858534412
  C        22.8747505553        5.6886358816        5.2810850584
  C        25.0826383256        7.5516698185        2.8256531983
  C        25.0687332395        7.5474966513        1.4028822436
  C        24.3763239901        6.5479526321        0.6486159795
  C        38.3037343725       31.9302823475        5.8480713347
  C        37.5766040675       30.8413095831        5.1359212553
  C        36.6203737289       31.1456255087        4.1551041175
  C        36.0053754964       30.1255402032        3.4347381260
  C        36.3317106094       28.7764526926        3.6744650259
  C        37.2588015187       28.4796623614        4.6911297345
  C        37.8781791687       29.4984024625        5.4100376965
  C        35.7292704858       27.6844924125        2.8780709105
  C        35.7616251652       27.6966647708        1.4568756321
  C        36.4688854908       28.6970069278        0.7182357832
  C        25.6954183231        8.6201347063        0.6874112928
  C        25.6790642232        8.6260098674        3.4996984988
  C        38.3282284413       31.9617754902       10.1551992351
  C        37.6062730537       30.8871509014       10.8944203870
  C        36.6773440787       31.1931259845       11.9006495665
  C        36.0688411355       30.1724963732       12.6285053540
  C        36.3751463582       28.8206888547       12.3736962668
  C        37.2806213406       28.5246656417       11.3365156786
  C        37.8912341501       29.5417404955       10.6098923024
  C        35.7707773142       27.7201694191       13.1584942023
  C        35.7833948395       27.7146453826       14.5803733800
  C        36.4786242179       28.7060431694       15.3415325368
  C        46.1353728068       26.6207719750       15.2814663299
  C        46.0875870169       26.5800211116       12.4735759005
  C        22.4676246795        3.2543281686       10.2461758406
  C        23.1787931818        4.3647284770       10.9457544536
  C        24.1920736247        4.0818121388       11.8748947637
  C        24.8303686878        5.1159653303       12.5543001839
  C        24.4731887473        6.4596996426       12.3263400253
  C        23.4871880801        6.7358592633       11.3610697835
  C        22.8451262907        5.7021793918       10.6811642107
  C        25.0983035987        7.5591328812       13.1004791994
  C        25.0761189476        7.5509114284       14.5227609587
  C        24.3779491357        6.5510405835       15.2715849828
  C        26.5593705576       17.8292192062        5.7761751558
  C        25.2608193382       17.8827224565        5.0463100040
  C        24.9970151064       18.9028762017        4.1189371054
  C        23.7885656254       18.9270775730        3.4271309100
  C        22.8106406365       17.9361088405        3.6444597608
  C        23.0692111468       16.9389305305        4.6031169894
  C        24.2794915646       16.9087865684        5.2921491662
  C        21.5437471836       17.9286900630        2.8746513296
  C        21.5541951706       17.9265013225        1.4532622667
  C        22.7656927037       17.8163854591        0.7004346014
  C        34.3829387186       17.2906960780        5.8013008979
  C        35.6956055777       17.2097279964        5.0978231296
  C        35.9027878877       16.2421911264        4.1020675244
  C        37.0995565039       16.2094913163        3.3925994931
  C        38.1190799796       17.1463260470        3.6530343895
  C        37.9168680544       18.0879953088        4.6801218479
  C        36.7196831205       18.1229820231        5.3919359505
  C        39.3755814277       17.1511476969        2.8695306305
  C        39.3668747244       17.1678009739        1.4471496801
  C        38.1587483835       17.3003899156        0.6919911477
  C        20.3117123852       17.9489324979        0.7395149059
  C        20.3176681731       17.9187433013        3.5520938225
  C        34.4673623351       17.2457491701       10.1030065566
  C        35.7578374222       17.1819202799       10.8497415630
  C        35.9561211268       16.2131982160       11.8451471596
  C        37.1352300577       16.1979635777       12.5859134301
  C        38.1469352579       17.1495315684       12.3509271801
  C        37.9520840795       18.0966212968       11.3276389581
  C        36.7705599779       18.1181361678       10.5908417197
  C        39.3949876025       17.1617122628       13.1480542696
  C        39.3771005417       17.1726653266       14.5697273633
  C        38.1631843456       17.3007471325       15.3153087722
  C        35.1534723842       26.6364641767       15.2860755082
  C        35.1806734980       26.6484171891       12.4770471358
  C        26.5759608122       17.8237167678       10.3203271846
  C        25.2613335379       17.8743906554       11.0256397702
  C        24.9982913247       18.8893383822       11.9577249120
  C        23.7789636616       18.9247238356       12.6279696573
  C        22.7953898804       17.9449007642       12.3887152692
  C        23.0533721776       16.9536047197       11.4248484380
  C        24.2732628195       16.9164077594       10.7527016545
  C        21.5293266120       17.9355135820       13.1563573715
  C        21.5459935702       17.9280082543       14.5773741996
  C        22.7614143254       17.8158714270       15.3243069321
  C        14.0461125233       17.8331047019       10.2824893110
  C        15.3543231319       17.9007531009       10.9963010768
  C        15.6151540818       18.9182616449       11.9268073780
  C        16.8272847527       18.9476890300       12.6125978402
  C        17.8092699272       17.9621844225       12.3887616770
  C        17.5546713554       16.9704712104       11.4233925157
  C        16.3421910182       16.9368734203       10.7387098131
  C        19.0751074178       17.9474993984       13.1598377242
  C        19.0649236855       17.9424644817       14.5812753460
  C        17.8526517103       17.8428718751       15.3340281203
  C        46.8021569545       17.2163037213       10.1541182454
  C        45.5058099645       17.1507494865       10.8879323212
  C        45.2890560210       16.1680388848       11.8660104849
  C        44.1024553256       16.1516376183       12.5943188674
  C        43.1033080986       17.1182027231       12.3668594931
  C        43.3154485200       18.0775703886       11.3584828946
  C        44.5024797783       18.0977511431       10.6310049334
  C        41.8509539027       17.1387717292       13.1565551139
  C        41.8610557074       17.1404774954       14.5783995309
  C        43.0729603885       17.2274614227       15.3333121587
  C        20.3073824216       17.9500922829       15.2954625382
  C        20.3014075135       17.9254133189       12.4832975226
  C        46.7837742539       17.2344147003        5.8826342774
  C        45.4837464326       17.1357735160        5.1567296969
  C        45.2669102444       16.1437461534        4.1877518462
  C        44.0812071150       16.1213721494        3.4562674085
  C        43.0798876377       17.0881435199        3.6746838449
  C        43.2885167090       18.0515385403        4.6799359463
  C        44.4750663809       18.0801822262        5.4068019481
  C        41.8313983780       17.1126607575        2.8780274482
  C        41.8511913380       17.1257070117        1.4561751018
  C        43.0683025120       17.2186954770        0.7102396987
  C        46.1531157336       26.6372114233        0.7262148565
  C        46.1620380166       26.6560022422        3.5358543142
  C        14.0396837091       17.8269520418        5.7047545314
  C        15.3523754053       17.8929040314        5.0009634187
  C        15.6231209103       18.9153671216        4.0796891357
  C        16.8460326791       18.9507306070        3.4146019990
  C        17.8232179063       17.9625079562        3.6462742098
  C        17.5576651378       16.9650263265        4.6016105325
  C        16.3369975085       16.9295167277        5.2707513886
  C        19.0897724672       17.9452316059        2.8788402250
  C        19.0727565205       17.9402133214        1.4576296761
  C        17.8564215298       17.8412478741        0.7102291889
  C        28.8192536378       14.0860896377       10.2779754622
  C        28.2105780679       12.9231349596       10.9876751680
  C        28.9287452122       12.2113883947       11.9600310323
  C        28.3327712169       11.1439924352       12.6283491398
  C        27.0052734351       10.7615962504       12.3466297278
  C        26.3082787905       11.4568990288       11.3416072662
  C        26.9004697349       12.5262261433       10.6745590189
  C        26.3396020012        9.6781942252       13.1075623966
  C        26.3132712156        9.7016330534       14.5287293987
  C        26.8020030961       10.8167701877       15.2793842008
  C        32.1781859406       21.2348169998       10.1448278522
  C        32.7779247985       22.3939741406       10.8699233607
  C        32.0325250666       23.0712954316       11.8468314761
  C        32.6047785118       24.1119047759       12.5719206358
  C        33.9381099762       24.5018513316       12.3413173548
  C        34.6667689572       23.8415592579       11.3342926045
  C        34.0965905533       22.7960388446       10.6106499847
  C        34.5681140748       25.5785608509       13.1385655624
  C        34.5616987572       25.5516344116       14.5601478813
  C        34.0524731674       24.4378645224       15.2998576312
  C        25.7028173371        8.6195307195       15.2424846041
  C        25.7148833967        8.6230388361       12.4291474539
  C        32.0972164649       21.2432629751        5.8818663980
  C        32.6880149217       22.3947888351        5.1424109484
  C        31.9558649666       23.0486921720        4.1389927217
  C        32.5398929267       24.0741943896        3.3992348081
  C        33.8678427866       24.4755666464        3.6451773974
  C        34.5812318570       23.8355011064        4.6770083891
  C        34.0034644094       22.8037664470        5.4117101100
  C        34.5116551375       25.5524345252        2.8584155913
  C        34.5304401595       25.5389592204        1.4366234691
  C        34.0355465779       24.4328866264        0.6765809764
  C        40.6112571425       17.1337604965        0.7356305638
  C        40.6012190962       17.1414748885        3.5457825635
  C        28.7150211690       14.1033533561        5.7021167158
  C        28.1116054665       12.9468440667        4.9773586100
  C        28.8424068414       12.2501162501        4.0016996363
  C        28.2630173315       11.1805526167        3.3228774025
  C        26.9378359403       10.7818332544        3.5929080498
  C        26.2268916383       11.4653223777        4.5969551502
  C        26.8040718290       12.5340292499        5.2791497833
  C        26.2954582906        9.6890585914        2.8258967501
  C        26.2911524749        9.7081812473        1.4044258753
  C        26.7887496069       10.8206203293        0.6549492463
  C        18.1353900342        3.1809314325       10.3169128809
  C        17.4057908515        4.2780849205       11.0154552148
  C        16.3901350021        3.9995181592       11.9429828138
  C        15.7422053398        5.0393514078       12.6065276503
  C        16.0938906379        6.3831395281       12.3669237138
  C        17.0831615882        6.6528754963       11.4031029556
  C        17.7324470090        5.6156778834       10.7380105166
  C        15.4694336559        7.4907476478       13.1299974426
  C        15.4848612184        7.4901664731       14.5517102686
  C        16.1864452170        6.4965788041       15.3048861794
  C        42.9459625601       31.8595408182       10.0728959927
  C        43.6462913337       30.7718973339       10.8168291616
  C        44.5920182106       31.0931616342       11.8027365341
  C        45.1976821918       30.0875678898       12.5503634054
  C        44.8709849503       28.7345400728       12.3356566451
  C        43.9449912098       28.4202548099       11.3225832217
  C        43.3362227767       29.4254378215       10.5745722354
  C        45.4885171414       27.6552215502       13.1388464283
  C        45.4927439489       27.6809263724       14.5605301713
  C        44.8057477164       28.6890548390       15.3071232525
  C        14.8559937148        8.5627256637       15.2640647439
  C        14.8740447718        8.5624452394       12.4513965069
  C        42.9464508960       31.9615412979        5.8089536652
  C        43.6916140780       30.8854473762        5.0954691052
  C        44.6562832738       31.1913383060        4.1232280365
  C        45.2777543153       30.1717408479        3.4054909660
  C        44.9538593751       28.8214350524        3.6430488970
  C        44.0202983190       28.5237830344        4.6537598737
  C        43.3920867225       29.5405532527        5.3659595794
  C        45.5628365830       27.7240376198        2.8577837405
  C        45.5332166513       27.7174140956        1.4364895415
  C        44.8269873294       28.7076933072        0.6835156507
  C        35.1399664601       26.6286579703        0.7308503530
  C        35.1227483225       26.6114454249        3.5403045957
  C        18.1484460532        3.2469504418        5.7064796599
  C        17.4297632207        4.3437631156        4.9973060177
  C        16.4146532108        4.0524406817        4.0736408783
  C        15.7663133526        5.0830349271        3.3982305494
  C        16.1207968076        6.4283055735        3.6210425868
  C        17.1120486126        6.7117209779        4.5784334453
  C        17.7597593480        5.6828570215        5.2582299748
  C        15.4903109799        7.5239753563        2.8485494078
  C        15.4961473645        7.5072745640        1.4274078415
  C        16.1928085769        6.5055048500        0.6807015205
  H        10.6723800712       12.4663092937        3.9039018796
  H        11.6945279838       10.5515160722        2.6619735981
  H        15.3910037127       11.1677516303        4.7728741375
  H        14.3504834368       13.0704546823        6.0182808189
  H        13.3760481056       11.6310875563        1.2010753124
  H        50.3225835486       22.7488142415        3.9871374211
  H        49.3193206130       24.6231995059        2.6810572691
  H        45.6415849382       24.1607180789        4.8633429188
  H        46.6625751217       22.2898293411        6.1716065795
  H        47.6293647062       23.5757479936        1.2462188475
  H        14.8717105629        8.5881300635        4.6084190129
  H        50.2868360964       22.7027312309       12.0601873721
  H        49.2688038050       24.5756125690       13.3602159125
  H        45.6099180222       24.1086017574       11.1464403369
  H        46.6520803270       22.2533261579        9.8321829003
  H        47.6073358735       23.5516666503       14.7968679492
  H        40.6287010511       17.1298225217       11.3931137280
  H        48.6867753543       14.0952068343        7.7999864906
  H        10.6809152508       12.4668355397       12.0934873896
  H        11.6889040841       10.5247523326       13.2971721014
  H        15.3925720099       11.1577374208       11.2048782894
  H        14.3642638724       13.0863016393        9.9895719261
  H        13.3754436004       11.6218553233       14.7528775448
  H        47.9301241609       14.2182125204        9.7109772421
  H        47.7797023320       14.3729843215        6.4949069873
  H        49.0819212637       18.5517888370       10.8667685769
  H        10.4154222173       14.1343254097        7.9988420697
  H        24.4629257995        3.0271947077        3.8828175537
  H        25.5905633393        4.8753529653        2.6347810899
  H        23.2172814541        7.7550833361        4.7737494327
  H        22.1084658309        5.8968551805        6.0239974870
  H        23.8124342631        5.7883325821        1.1822684604
  H        36.3840540212       32.1889344088        3.9597386209
  H        35.2631550036       30.3644039106        2.6762446766
  H        37.5181218304       27.4404590477        4.8825192427
  H        38.6196012579       29.2776904195        6.1742494486
  H        37.0347191233       29.4470547967        1.2630911442
  H        25.7094529799        8.6076207539        4.5877086799
  H        36.4534739300       32.2367091096       12.1100586787
  H        35.3433904840       30.4149588732       13.4019096283
  H        37.5284552637       27.4850559791       11.1327236979
  H        38.6133832141       29.3183791574        9.8284157295
  H        37.0529357312       29.4626601214       14.8147257034
  H        46.1089197574       26.5873194369       11.3855378827
  H        44.6681250255       35.1161320901        7.8142331954
  H        24.4671546551        3.0437867933       12.0474852760
  H        25.6177536104        4.8926801560       13.2710273234
  H        23.2028126363        7.7698893315       11.1770772422
  H        22.0657671423        5.9095054811        9.9516422527
  H        23.8146880554        5.7939386765       14.7339039052
  H        44.9533394666       34.3898996672        9.6947685358
  H        44.9019025896       34.2070423773        6.4904991765
  H        40.6656197732       33.2087112991       10.8528866240
  H        23.1503741943        1.9580896571        8.0000720188
  H        25.7450714296       19.6761768516        3.9589371432
  H        23.5855205730       19.7222795506        2.7130341939
  H        22.3225405073       16.1668365294        4.7770470739
  H        24.4928752551       16.1278477517        6.0182276859
  H        23.7043774199       17.6995826497        1.2341912803
  H        35.1070224323       15.5321887538        3.8889800734
  H        37.2578840799       15.4531145805        2.6270262779
  H        38.6964635370       18.8178790341        4.8885311071
  H        36.5473752671       18.8664216551        6.1668736103
  H        37.2216229530       17.4327967086        1.2247359372
  H        20.3191889336       17.9433112261        4.6403672030
  H        35.1674773229       15.4888031311       12.0346244653
  H        37.2865941019       15.4415774511       13.3529233457
  H        38.7248159718       18.8396780543       11.1415587230
  H        36.6013239236       18.8668878544        9.8206209760
  H        37.2300202807       17.4322122285       14.7747642651
  H        35.1507227268       26.6735499181       11.3893921824
  H        28.4846539711       21.1329963583        7.9889609966
  H        25.7623808606       19.6419664775       12.1383579747
  H        23.5733759742       19.7157237692       13.3459852504
  H        22.3010775195       16.1904179581       11.2363910847
  H        24.4899959656       16.1404358297       10.0224319899
  H        23.6964288854       17.6982671998       14.7847384082
  H        29.0187905606       21.7098387731        9.7709218306
  H        29.0883587742       21.8231631044        6.6096065245
  H        32.0841491149       18.5223120290       10.8643511607
  H        27.3374129093       19.0857596195        8.0888657763
  H        14.8570154593       19.6791907602       12.0977906042
  H        17.0279767872       19.7403332772       13.3302125529
  H        18.3049352571       16.2033094267       11.2432498050
  H        16.1305957758       16.1585544909       10.0094546318
  H        16.9131666978       17.7341835362       14.8000777756
  H        46.0680133150       15.4319047899       12.0503217885
  H        43.9354784622       15.3834720486       13.3462170198
  H        42.5515291972       18.8308856644       11.1774728731
  H        44.6836080228       18.8538119017        9.8706692869
  H        44.0137962926       17.3336345259       14.8008962843
  H        20.3006902463       17.9526259568       11.3951074772
  H        46.0428163980       15.4024846178        4.0100767880
  H        43.9179103779       15.3490545944        2.7077358096
  H        42.5226820622       18.8039284091        4.8566706872
  H        44.6538068594       18.8432112764        6.1604666430
  H        44.0056590845       17.3175661823        1.2499785409
  H        46.1988037801       26.6824987610        4.6233027399
  H        52.7411373514       21.0625803703        8.1946364360
  H        14.8660843899       19.6763459444        3.9037565359
  H        17.0584066827       19.7474556333        2.7049604442
  H        18.3046610649       16.1954130000        4.7847104977
  H        16.1151399978       16.1492477296        5.9947450995
  H        16.9197954448       17.7313640886        1.2485811472
  H        52.3222917673       21.6734659887        6.2946098856
  H        52.0132714211       21.7023713862        9.4954212824
  H        49.0672995571       18.6078905410        5.2037770337
  H        13.2472300656       19.0164012742        7.9752559688
  H        29.9516068542       12.5095565216       12.1795467826
  H        28.8935266314       10.5918693096       13.3794380463
  H        25.2819081550       11.1740706768       11.1169398244
  H        26.3578447392       13.0834810188        9.9149309331
  H        27.1626248545       11.6908468631       14.7453282660
  H        31.0087239069       22.7564912336       12.0333884638
  H        32.0216048214       24.6368792929       13.3253126944
  H        35.6991268451       24.1329124250       11.1518395129
  H        34.6639787445       22.2608936252        9.8527255604
  H        33.6968735703       23.5679570140       14.7550377484
  H        25.7537320105        8.6029953636       11.3414545074
  H        30.9337845213       22.7312222250        3.9439621865
  H        31.9669306726       24.5817243912        2.6262509701
  H        35.6089160683       24.1347970229        4.8722356124
  H        34.5603960731       22.2863207008        6.1894145284
  H        33.6662167656       23.5589450500        1.2055100934
  H        40.5965794231       17.1025755287        4.6334832010
  H        32.5187723582       14.2098287035        8.0686315822
  H        29.8682954839       12.5502716797        3.7980343274
  H        28.8374251448       10.6363007558        2.5764232646
  H        25.2019145276       11.1703056600        4.8124119310
  H        26.2524343042       13.0765822013        6.0432905865
  H        27.1381233562       11.6996995754        1.1878433186
  H        33.2950759329       14.3730680531        6.2651841740
  H        33.4108628714       14.3742849353        9.4439525601
  H        32.0555333290       18.6332339068        5.0343089852
  H        30.2309889469       14.2107530791        7.9023102570
  H        16.1182519847        2.9629593258       12.1293461953
  H        14.9527702868        4.8197839522       13.3221511297
  H        17.3653809159        7.6858146304       11.2100248078
  H        18.5144240341        5.8184885586       10.0101461507
  H        16.7528713093        5.7391456071       14.7713808054
  H        44.8284893052       32.1402141928       11.9768311497
  H        45.9376905267       30.3412369201       13.3061966030
  H        43.6820667626       27.3782196789       11.1526120667
  H        42.5994436360       29.1901339902        9.8100588060
  H        44.2304498341       29.4368467243       14.7687932373
  H        14.8501163321        8.5455752745       11.3631820694
  H        44.8999546090       32.2340042944        3.9318697255
  H        46.0247356227       30.4129267440        2.6523168916
  H        43.7632680922       27.4840605257        4.8452667529
  H        42.6455721109       29.3177475343        6.1243853223
  H        44.2685099104       29.4706195200        1.2180728360
  H        35.0786846829       26.6270465245        4.6276658080
  H        36.6049838141       35.1339853611        8.1807502705
  H        16.1436445192        3.0128498447        3.9038797521
  H        14.9740310378        4.8561314166        2.6881170881
  H        17.3953205289        7.7472251909        4.7554731199
  H        18.5424565955        5.8933300812        5.9831800087
  H        16.7642259695        5.7552414734        1.2191223549
  H        36.2781905450       34.4827933959        6.2731064043
  H        36.3808342716       34.2092355931        9.4999225671
  H        40.5807323843       33.2029346102        5.1534904351
  H        17.4706824593        1.9474072448        7.9739470733
  H        29.2380554469       19.3621439312       12.5058076177
  H        29.9513174117       19.5750604927        3.2083346264
  H        30.6131416877       15.4810159430        3.6248021906
  H        31.3516264971       15.5905196265       12.3535614017
  H        28.2979710417       17.8171420922       14.5120981628
  H        29.7217651000       15.4003015141       14.4726586300
  H        31.7777481867       19.4927929646        1.6207117543
  H        28.7078828630       14.4030385996        2.0168404245
  H        32.7870249668       18.6898007195       15.3805534875
  H        18.8528322477        0.8689279744       12.3350470803
  H        40.5278993739       35.2290914217        3.9520597973
  H        42.3241084115       34.4189282932        3.5905545397
  H        22.0877413965        0.6920785633       12.3520326099
  H        11.5967607487       18.7128316550       12.3825840586
  H        52.2646752864       18.4314302472        3.6774076973
  H        49.2550833698       16.4766099094        3.5842853764
  H        10.1504266717       15.7982713971       12.2926889648
  H        50.8498855983       17.6925180554        3.9540572649
  H        10.0460623909       17.3947100267       12.0519523857
  H        20.2139032773        0.0021948179       12.0421090550
  H        39.1835621199       36.1243157723        3.6861473518
 Ni        30.5250715240       17.3311548299        2.1624668798
 Ni        31.4925877566       16.5772872458       -0.3330897934
 Ni        30.1483436708       18.5604050489       -0.0748676398
 Ni        30.1436121300       17.3504081228       12.9949112241
  O        10.6497798400       14.3651882743        5.4857660028
  O        12.6130671186       14.6574080636        6.5838476576
  O        49.1476763863       16.8459172496        7.9896826793
  O        50.3501164626       20.9362520722        5.6482093218
  O        48.3484810895       20.5933231441        6.6659044216
  O        11.0508150228       17.0539581988        6.5005649524
  O        50.3207760862       20.8817044579       10.4068733036
  O        48.3466572597       20.5867114548        9.3270150333
  O        49.5434319866       18.2484375041       10.0682783332
  O        12.3588667821       18.6245996383        7.9996719993
  O        48.6930808851       14.1487482374        6.7512376679
  O         8.2098080972       14.2104886523        9.3225526036
  O        10.7352043771       14.5067574613       10.6644093513
  O        12.5716879352       14.5827064919        9.3285559300
  O        22.8454719888        2.0448168895        5.4852877765
  O        21.6080503631        3.5944146176        6.5859358775
  O        42.0582614394       34.1374869916        7.9788368731
  O        37.9819824272       33.1386464485        5.5726098204
  O        39.2181555074       31.5763816392        6.6666822984
  O        20.3086922985        1.0399832997        6.5015174043
  O        38.0245400081       33.1854479693       10.4151506081
  O        39.2194786430       31.5840009034        9.3260357364
  O        40.6522585398       33.7693623510       10.0602449860
  O        18.2555199548        1.3764354781        7.9966344727
  O        44.6221682956       35.1006632754        6.7588571350
  O        24.2054256189        0.0000253184        9.3207794519
  O        22.7530917025        2.0577107352       10.5826203543
  O        21.6232951953        3.5943943995        9.3387234146
  O        27.4552385002       18.6980486620        5.4790214907
  O        26.6885390444       16.9225826375        6.6624623104
  O        30.6148149439       19.4170708294        7.9972996008
  O        33.4982211187       16.4214400501        5.4895846834
  O        34.2301418013       18.2409959393        6.6455319000
  O        29.5225678804       17.1326187579        6.4999423443
  O        33.6102890511       16.3213701753       10.3139942177
  O        34.3040953215       18.2449070071        9.3209186920
  O        31.6580061039       18.3119947596       10.0147461546
  O        30.3177097048       15.1776591785        7.9223001304
  O        28.5086101343       21.0998648812        6.9083017381
  O        28.5125093906       20.9621110022        9.4084773624
  O        27.4612231703       18.6770325121       10.6553093406
  O        26.6963792983       16.9255507474        9.4095981416
  O        13.1469824335       18.6937683949       10.5861371221
  O        13.9181620854       16.9159208915        9.4039318253
  O        50.5958608978       19.3502240806        8.0205252962
  O        47.6819581027       16.3273933621       10.4173109338
  O        46.9520456190       18.1761889215        9.3237301766
  O        11.0689549508       17.0158710111        9.4895850338
  O        47.6735753899       16.3361825119        5.6517377538
  O        46.9251899429       18.2358200538        6.6627608803
  O        49.5683417021       18.3177184061        5.9820284866
  O        10.3184321295       15.1002143549        7.9971014422
  O        52.6706998967       21.0280053647        9.2418167299
  O        12.1468281985       20.8913089231        6.6732476817
  O        13.1053834014       18.6141385131        5.3260471367
  O        13.9556728639       16.9864257340        6.6651329753
  O        30.0096539834       14.4339585775       10.5705810811
  O        28.0818192509       14.6550395215        9.3986045860
  O        32.0944175909       16.9174800381        7.9141144487
  O        30.9623796654       20.9498018971       10.4027385148
  O        32.9438676357       20.6008298450        9.3322174275
  O        29.5643964267       17.0740680878        9.4873745338
  O        30.8702581194       20.9572389718        5.6600255147
  O        32.8733998864       20.5950010479        6.6610181779
  O        31.5567147183       18.3276968645        5.8085832767
  O        28.2225871308       18.6877922128        8.0602077057
  O        32.4938753250       14.2162829342        9.1528113825
  O        32.4034787605       14.3514877997        6.6508574771
  O        29.8693609641       14.5091691136        5.3261777299
  O        28.0352241683       14.5964169173        6.6638660815
  O        17.8892800302        1.9665945254       10.6627819876
  O        18.9562602403        3.5271225466        9.4078453916
  O        39.1686797838       34.1388958565        7.9971536787
  O        43.2802301966       33.0590363604       10.3317077299
  O        42.0345994997       31.5065053808        9.2416076878
  O        20.3175562504        1.0366452014        9.4794323099
  O        43.2760192105       33.1825628266        5.5748898424
  O        42.0053075237       31.5841601840        6.5830298263
  O        40.5791601113       33.7752106776        5.9359058400
  O        22.3673918178        1.3846542283        7.9974447991
  O        36.6727954813       35.0997775895        9.2333147241
  O        16.4455394481        0.0643427740        6.6682744003
  O        17.9363323575        2.0433575050        5.3263976936
  O        18.9191697118        3.5932106705        6.6657057478
  O        29.3237862244       19.5617846867        3.9930154247
  O        29.8668445021       18.9010173959       11.9161924233
  O        31.0101191020       16.3516461397        3.8256539348
  O        31.3096812960       16.4116715487       11.8213319175
  O        29.2726670386       14.7993870531        1.3304633732
  O        30.5399318341       15.8262311651       14.1596970576
  O        31.9805696048       18.3183596418       14.9860914276
  O        30.8339123210       19.2647359888        1.6799438045
  O        29.1117987961       18.3099808157       14.3168560003
  O        39.4567798854       35.2438182786        4.0019497176
  O        19.1408374436        0.0043896390       11.9905601285
  O        41.9695864764       35.1727222146        4.0872156733
  O        21.6913907456       -0.0690263479       11.8958602726
  O        51.3647645788       18.6143491830        4.0053180162
  O        10.7509850780       18.7471866218       11.9050264421
  O        50.0794550393       16.4127622008        4.0917280833
  O         9.5245437139       16.4831050270       11.9911892238
 Zr         9.2959199718       16.0529046835        6.1822161947
 Zr        49.8358703482       16.0069846423        9.7466899350
 Zr        22.0735998397        0.0299494361        6.1890456384
 Zr        42.4607095417       35.1533940950        9.8009904174
 Zr        29.5393620131       19.1759476738        6.2900275982
 Zr        29.5632600781       19.1654725546        9.8293146417
 Zr        11.0372483535       19.0523625110        9.8277889512
 Zr        11.0432079094       19.1550871394        6.2513260495
 Zr        31.3621985574       16.0975336455        9.7149870994
 Zr        31.3231845598       16.1073250492        6.0881692023
 Zr        18.6011264809       -0.0013684623        9.7632489899
 Zr        18.5063311949       -0.0077898314        6.2138184500
 Zr        12.3007306477       16.3233673336        7.9904870198
 Zr        48.6156978179       18.8328979661        8.0098130105
 Zr        20.3151926112        2.4734134511        7.9892555607
 Zr        40.6435531517       32.6869978710        7.9782507368
 Zr        28.3265489411       16.3499584331        8.0278290435
 Zr        32.6157118383       18.8677339823        8.0031013042
  H        29.2803927576       17.6838314234        1.0424005330
  H        28.5122496897       19.1050613014        3.7019303569
  H        29.0094050762       15.7458552545        1.2950634776
