     569
 i =      128, E =     -4729.4905906172
  C        11.8587621537       14.0534077977        5.7415898001
  C        12.4562025651       12.8904147704        5.0234807822
  C        11.7046440905       12.1717090455        4.0815151351
  C        12.2810400057       11.1095281788        3.3891608481
  C        13.6215222543       10.7394697551        3.6171304636
  C        14.3544902269       11.4427427693        4.5909868661
  C        13.7815898119       12.5076846233        5.2825318121
  C        14.2611214701        9.6489083679        2.8436456908
  C        14.2562686308        9.6568073401        1.4219384048
  C        13.7429391364       10.7588522131        0.6680260831
  C        49.1266675303       21.2332887098        5.8797631151
  C        48.5499237698       22.4012025033        5.1527371070
  C        49.2998580619       23.0683044061        4.1715042975
  C        48.7329459004       24.1074267094        3.4382865230
  C        47.4025031260       24.5093161860        3.6670909795
  C        46.6716797686       23.8606971822        4.6808778294
  C        47.2340930958       22.8157847155        5.4102476078
  C        46.7722828761       25.5869930630        2.8697897188
  C        46.7612578070       25.5573289874        1.4480276743
  C        47.2610954613       24.4421978750        0.7045242047
  C        14.8603066578        8.5705484843        0.7086275295
  C        14.8921836146        8.5970740369        3.5202442185
  C        49.1130714830       21.2034849895       10.1453229290
  C        48.5277302258       22.3648352653       10.8724160948
  C        49.2668684744       23.0253715208       11.8655331629
  C        48.6905521445       24.0599155754       12.5970014654
  C        47.3602209265       24.4569023906       12.3586069391
  C        46.6399446830       23.8122289725       11.3348232834
  C        47.2134694969       22.7763192429       10.6030219422
  C        46.7217687321       25.5318419367       13.1496601858
  C        46.7334718517       25.5281444882       14.5713668833
  C        47.2488262407       24.4288998759       15.3277603449
  C        40.6190065868       17.0673840957       15.3202355749
  C        40.6327395625       17.1084929726       12.5097691859
  C        11.8828581268       14.0864395761       10.2854596700
  C        12.4721021328       12.9106217571       10.9895917849
  C        11.7147107619       12.1776986530       11.9160513963
  C        12.2812751864       11.0952443162       12.5844729870
  C        13.6199654026       10.7211642856       12.3523549661
  C        14.3577398252       11.4363531632       11.3910938125
  C        13.7923364110       12.5175074379       10.7183726401
  C        14.2536112270        9.6244781616       13.1228047662
  C        14.2522890838        9.6444416625       14.5446486182
  C        13.7423352661       10.7533211397       15.2917712147
  C        22.5130458604        3.2456036456        5.7531267152
  C        23.2282101623        4.3515982967        5.0547439997
  C        24.2277517641        4.0733937509        4.1104820175
  C        24.8552696883        5.1138149401        3.4298604114
  C        24.4991089344        6.4556552388        3.6720772749
  C        23.5278170833        6.7252382061        4.6537366030
  C        22.8961587769        5.6867866280        5.3332975207
  C        25.1041193788        7.5638093145        2.8972425551
  C        25.0847226898        7.5539229803        1.4751289672
  C        24.3923187418        6.5498145052        0.7264460004
  C        38.2977548566       31.9271856155        5.8512635611
  C        37.5556113669       30.8377295191        5.1496729504
  C        36.5889853947       31.1439690644        4.1790234754
  C        35.9578392118       30.1260621813        3.4685918319
  C        36.2770159351       28.7740410185        3.7042765352
  C        37.2131328844       28.4752567674        4.7126713408
  C        37.8481414744       29.4922486823        5.4227717841
  C        35.6660725316       27.6863466727        2.9036254982
  C        35.7050086465       27.7039816934        1.4812513796
  C        36.4190259237       28.7052113197        0.7502417866
  C        25.7051754617        8.6263431368        0.7564404282
  C        25.6925151368        8.6429907728        3.5692317047
  C        38.3312069493       31.9621131680       10.1599478670
  C        37.6148485562       30.8898519802       10.9096464973
  C        36.6821922380       31.2003951235       11.9112942539
  C        36.0722818703       30.1839176777       12.6442478892
  C        36.3802875052       28.8305110017       12.3996394070
  C        37.2943335546       28.5299047147       11.3709831608
  C        37.9059648508       29.5428884376       10.6391047383
  C        35.7640480769       27.7324811953       13.1798715837
  C        35.7550683520       27.7276914715       14.6024369601
  C        36.4414853643       28.7173770851       15.3734830988
  C        46.1354857305       26.6207902077       15.2815111196
  C        46.0878384250       26.5802304417       12.4736161138
  C        22.4657601946        3.2575884135       10.2595083173
  C        23.1687367863        4.3641555394       10.9805133406
  C        24.1721246483        4.0738385598       11.9193609365
  C        24.8087220696        5.1003325227       12.6141249945
  C        24.4638138294        6.4493065592       12.3943980263
  C        23.4839601603        6.7326904632       11.4234653300
  C        22.8426847708        5.7065343190       10.7290664402
  C        25.0989918644        7.5460782093       13.1706367271
  C        25.0830764742        7.5438830985       14.5942158986
  C        24.3889468324        6.5465462763       15.3493083487
  C        26.6269192074       17.8621006450        5.7423671009
  C        25.3248890676       17.9286512430        5.0193956857
  C        25.0611959200       18.9322302281        4.0736957000
  C        23.8413095161       18.9609597358        3.4002508151
  C        22.8499323757       17.9902672881        3.6504793716
  C        23.1097529843       17.0108646671        4.6278376642
  C        24.3294874439       16.9766904650        5.2993129124
  C        21.5742578762       17.9770344918        2.8916667634
  C        21.5749871329       17.9494405245        1.4696007739
  C        22.7805974796       17.8163771592        0.7111050858
  C        34.4489010856       17.1861714187        5.9550823116
  C        35.7364482251       17.1256707911        5.2063547621
  C        35.9384955485       16.1430615818        4.2239447462
  C        37.1131553273       16.1241081207        3.4769003004
  C        38.1208671306       17.0843591795        3.6930350053
  C        37.9225242616       18.0469184723        4.7018575553
  C        36.7441971231       18.0731182815        5.4443160376
  C        39.3719378386       17.0863389840        2.8997684403
  C        39.3646122753       17.0839730240        1.4772500059
  C        38.1554636880       17.1877510694        0.7207073427
  C        20.3283528445       17.9643235346        0.7617552516
  C        20.3504318779       17.9770884823        3.5756354294
  C        34.4267630729       17.2112869679       10.2292709647
  C        35.7328909852       17.1215614510       10.9373147608
  C        35.9552144985       16.1299954649       11.9058710426
  C        37.1502397314       16.1017431681       12.6190424416
  C        38.1520000183       17.0645115335       12.3859270308
  C        37.9368703026       18.0280886900       11.3822855474
  C        36.7415406443       18.0606762509       10.6697306005
  C        39.4025378052       17.0816170843       13.1769153988
  C        39.3803777904       17.0827842683       14.5988963581
  C        38.1631231749       17.1859275834       15.3435627222
  C        35.1131283678       26.6506912436       15.2997886012
  C        35.1813634381       26.6614417256       12.4904679332
  C        26.5868324805       17.7986739741       10.3559110112
  C        25.2675447073       17.8541283066       11.0499718831
  C        25.0044492866       18.8630037085       11.9889138004
  C        23.7808449230       18.9009153308       12.6509158046
  C        22.7928009072       17.9275434926       12.4008375713
  C        23.0502280188       16.9443969882       11.4282936313
  C        24.2732284624       16.9066725073       10.7613591306
  C        21.5276461248       17.9163196857       13.1709842150
  C        21.5507130595       17.9152338538       14.5926119957
  C        22.7685502601       17.7987561075       15.3350073733
  C        14.0463398381       17.8298233757       10.2875067825
  C        15.3512059949       17.8898568069       11.0110607479
  C        15.6082923631       18.8983569585       11.9527931396
  C        16.8175652441       18.9227282366       12.6447151192
  C        17.8031987595       17.9412271374       12.4168857814
  C        17.5509284184       16.9567568011       11.4428771812
  C        16.3411815732       16.9280848256       10.7522542877
  C        19.0717799526       17.9275708392       13.1859319855
  C        19.0695589610       17.9330540002       14.6084071777
  C        17.8624336001       17.8386472368       15.3701033876
  C        46.8021177627       17.2176472354       10.1589532063
  C        45.5102233030       17.1502380398       10.9035195817
  C        45.3064108367       16.1680355204       11.8855293341
  C        44.1237157194       16.1410837379       12.6202258690
  C        43.1125217579       17.0962586702       12.3965659456
  C        43.3137064249       18.0583774148       11.3879630393
  C        44.4973442988       18.0890880450       10.6537916547
  C        41.8585246184       17.0969573509       13.1862545886
  C        41.8649659170       17.0903245215       14.6090601818
  C        43.0740056940       17.1903727751       15.3666052583
  C        20.3158549929       17.9474612600       15.3169393942
  C        20.2959836548       17.9028011080       12.5040384381
  C        46.7845474093       17.2306903345        5.8885959077
  C        45.4814358551       17.1217347296        5.1727575332
  C        45.2642809728       16.1190963610        4.2152867794
  C        44.0760582005       16.0867212063        3.4895382369
  C        43.0746829198       17.0538205193        3.7038907771
  C        43.2825893225       18.0268830978        4.6994093481
  C        44.4720311178       18.0655730518        5.4203695393
  C        41.8270311359       17.0679049314        2.9085154089
  C        41.8490052451       17.0737445090        1.4870767818
  C        43.0664067225       17.1796987252        0.7436258308
  C        46.1532708362       26.6372229481        0.7262744210
  C        46.1624182767       26.6561740001        3.5359149781
  C        14.0454581752       17.8336141121        5.7089931586
  C        15.3663917855       17.9144658685        5.0181601356
  C        15.6339748418       18.9343782569        4.0926048913
  C        16.8618500577       18.9802834654        3.4361292720
  C        17.8504193545       18.0056146583        3.6794191101
  C        17.5894589639       17.0141833545        4.6429447646
  C        16.3634224276       16.9677881994        5.3030167013
  C        19.1174970920       17.9893935981        2.9092002494
  C        19.0934100908       17.9644452013        1.4873486108
  C        17.8739109313       17.8524261969        0.7464663043
  C        28.7939105245       14.1182618060       10.4001419020
  C        28.2036212298       12.9368891411       11.0879631481
  C        28.9161448158       12.2408798780       12.0764924409
  C        28.3288221884       11.1562965005       12.7242167375
  C        27.0157089748       10.7461858084       12.4130561262
  C        26.3288175222       11.4246918936       11.3894160961
  C        26.9129969323       12.5066268358       10.7373116673
  C        26.3487649348        9.6632895612       13.1722305224
  C        26.3182852489        9.6969460388       14.5936598923
  C        26.7965027570       10.8201219998       15.3405038605
  C        32.1699995220       21.2698703326       10.1040863827
  C        32.7698893880       22.4311681572       10.8272841997
  C        32.0187712719       23.1095038700       11.8003973195
  C        32.5899216269       24.1391909521       12.5418405378
  C        33.9288498098       24.5224665127       12.3318191573
  C        34.6634576027       23.8633150275       11.3274090122
  C        34.0951393206       22.8261109953       10.5891731524
  C        34.5542339764       25.5936448019       13.1422333210
  C        34.5271507023       25.5678801632       14.5645686326
  C        34.0060355829       24.4555273272       15.2975440161
  C        25.7104096273        8.6166475253       15.3108596056
  C        25.7213436614        8.6063871939       12.4973280308
  C        32.0938879778       21.1607826898        5.8329994164
  C        32.6509542367       22.3302699188        5.0940393749
  C        31.9116054082       22.9945600977        4.1026819654
  C        32.4792527950       24.0465738325        3.3858277176
  C        33.8009470267       24.4657658190        3.6391778482
  C        34.5199390383       23.8176885906        4.6623459808
  C        33.9575464943       22.7633230530        5.3753519139
  C        34.4398067130       25.5566133073        2.8653695430
  C        34.4668246377       25.5498854021        1.4427415344
  C        33.9764204977       24.4474257987        0.6743680907
  C        40.6103291564       17.0634152381        0.7656106104
  C        40.5974433941       17.0944981136        3.5758936874
  C        28.7207677055       14.0969849522        5.8197650420
  C        28.1061485408       12.9494519954        5.0904044485
  C        28.8326555806       12.2773218014        4.0947090708
  C        28.2562014387       11.2181248274        3.3988269877
  C        26.9357248543       10.8041633490        3.6686491969
  C        26.2270668037       11.4648674681        4.6905951951
  C        26.8022103663       12.5243565755        5.3906762028
  C        26.2997782544        9.7105343940        2.8942375772
  C        26.2943224846        9.7212862232        1.4713602212
  C        26.7829509553       10.8333416117        0.7163999720
  C        18.1355995242        3.1810075892       10.3171651273
  C        17.4063164688        4.2783028014       11.0157675745
  C        16.3900898064        3.9999743971       11.9427344103
  C        15.7423574068        5.0399638430       12.6062258418
  C        16.0948002024        6.3836308611       12.3670614703
  C        17.0848007260        6.6531422916       11.4039476557
  C        17.7339318056        5.6157857153       10.7389244088
  C        15.4703216009        7.4912962322       13.1300938422
  C        15.4855544967        7.4905985894       14.5518111031
  C        16.1872105091        6.4970205559       15.3049348328
  C        42.9457671767       31.8596362628       10.0728070715
  C        43.6461596133       30.7718801777       10.8168008737
  C        44.5916574072       31.0932335389       11.8028764811
  C        45.1973995144       30.0877076690       12.5505611787
  C        44.8710061243       28.7346456957       12.3357028350
  C        43.9452239557       28.4202596161       11.3224642204
  C        43.3363984218       29.4253920087       10.5744006001
  C        45.4886069131       27.6553416820       13.1388917419
  C        45.4927837995       27.6809299548       14.5605942950
  C        44.8057775670       28.6890296085       15.3072237603
  C        14.8564619998        8.5630138274       15.2641881376
  C        14.8749721104        8.5630126860       12.4515108617
  C        42.9464310168       31.9617752386        5.8089632361
  C        43.6917196592       30.8855673329        5.0954871739
  C        44.6564378828       31.1914838884        4.1233299381
  C        45.2779980598       30.1718999139        3.4056051452
  C        44.9540967815       28.8216022582        3.6431170427
  C        44.0204932093       28.5239164553        4.6537721979
  C        43.3922036355       29.5406840689        5.3659441239
  C        45.5631200257       27.7241705831        2.8578695221
  C        45.5333644548       27.7174194959        1.4365684807
  C        44.8270945393       28.7076881358        0.6836174445
  C        35.0849180028       26.6406309176        0.7454104157
  C        35.0515645755       26.6110346038        3.5564736971
  C        18.1490290933        3.2470683049        5.7067539946
  C        17.4306184350        4.3439908558        4.9972749569
  C        16.4149999764        4.0527571180        4.0741499887
  C        15.7666866429        5.0833883400        3.3987474307
  C        16.1218323836        6.4285680061        3.6209838170
  C        17.1137596601        6.7119336545        4.5776638606
  C        17.7614464248        5.6830096260        5.2574365328
  C        15.4910826901        7.5242164999        2.8486147247
  C        15.4967811569        7.5075654504        1.4274739233
  C        16.1935359605        6.5058747174        0.6807508954
  H        10.6725948663       12.4659716201        3.9042604274
  H        11.6948235340       10.5512106347        2.6624386873
  H        15.3914116458       11.1679105611        4.7729938931
  H        14.3509754986       13.0706298852        6.0182356350
  H        13.3758810720       11.6309667742        1.2013147054
  H        50.3224855770       22.7481070236        3.9866132471
  H        49.3193555643       24.6225291213        2.6805420464
  H        45.6422937244       24.1617140392        4.8642565389
  H        46.6631449701       22.2907655212        6.1725489225
  H        47.6295514121       23.5757727671        1.2461864519
  H        14.8727334731        8.5883157428        4.6085548020
  H        50.2868385603       22.7023779880       12.0605846822
  H        49.2688751626       24.5752276145       13.3606520001
  H        45.6106347859       24.1096873134       11.1455721925
  H        46.6526942690       22.2543527099        9.8312864147
  H        47.6075313805       23.5517382385       14.7968845789
  H        40.6371027537       17.0835153794       11.4216708516
  H        48.6870787648       14.0948732056        7.7999767213
  H        10.6813357081       12.4669513034       12.0937111922
  H        11.6895499807       10.5250453470       13.2973796030
  H        15.3930396151       11.1581817391       11.2048455626
  H        14.3645989117       13.0865419966        9.9895237755
  H        13.3754301644       11.6219293074       14.7531870630
  H        47.9300921732       14.2181366889        9.7108890142
  H        47.7799689329       14.3734003920        6.4952820869
  H        49.0829664645       18.5521108245       10.8672289899
  H        10.4160089290       14.1343776407        7.9987898910
  H        24.4910609402        3.0353038874        3.9201009150
  H        25.6308720905        4.8968128081        2.6985740170
  H        23.2449410976        7.7577364071        4.8480334910
  H        22.1245601588        5.8868162992        6.0727372402
  H        23.8313533323        5.7913201171        1.2645928376
  H        36.3568046991       32.1880312134        3.9824548982
  H        35.2096726468       30.3702147516        2.7175694033
  H        37.4692718462       27.4352285512        4.9042740774
  H        38.5960628801       29.2662896695        6.1792727502
  H        36.9809110885       29.4537108938        1.3012042234
  H        25.7244995520        8.6256133523        4.6571590445
  H        36.4545337327       32.2448900584       12.1118983746
  H        35.3420374760       30.4312958260       13.4115819072
  H        37.5460139763       27.4895233599       11.1759744453
  H        38.6322835297       29.3148832235        9.8627666407
  H        37.0215121026       29.4749980765       14.8542591319
  H        46.1092966061       26.5877047936       11.3855796111
  H        44.6683822682       35.1162197342        7.8139591449
  H        24.4444958907        3.0342298394       12.0870272299
  H        25.5892991806        4.8650115016       13.3345414286
  H        23.2043597174        7.7686630350       11.2428079223
  H        22.0709422073        5.9259673055        9.9947519829
  H        23.8249411261        5.7861655549       14.8169185648
  H        44.9542425265       34.3907665600        9.6953850169
  H        44.9017895395       34.2069560844        6.4905365675
  H        40.6664605030       33.2096222542       10.8532760002
  H        23.1509187341        1.9581902512        8.0054855397
  H        25.8174346699       19.6902152142        3.8831260050
  H        23.6412982674       19.7440874541        2.6720986042
  H        22.3564021243       16.2519454733        4.8289111082
  H        24.5409876449       16.2064614276        6.0371990373
  H        23.7212487692       17.6928669781        1.2399678184
  H        35.1593523978       15.4044479106        4.0512701513
  H        37.2652272049       15.3552604489        2.7224913309
  H        38.6916637926       18.7970844982        4.8738106819
  H        36.5759938087       18.8324839651        6.2044748372
  H        37.2144948883       17.3019466832        1.2514182065
  H        20.3574982318       18.0176448838        4.6634961598
  H        35.1767850360       15.3948612609       12.0969792720
  H        37.3201098617       15.3299418610       13.3665275963
  H        38.7036527669       18.7773122523       11.1964647947
  H        36.5561175974       18.8224993893        9.9162196074
  H        37.2275450106       17.2992539094       14.8035518364
  H        35.1681047873       26.6866891314       11.4024920412
  H        28.5067391078       21.0810904364        8.0039423977
  H        25.7718810949       19.6092963862       12.1814552698
  H        23.5759718887       19.6877030838       13.3736617721
  H        22.2958721386       16.1857689918       11.2298533114
  H        24.4877355091       16.1354520592       10.0254346442
  H        23.6997355645       17.6620138096       14.7932816385
  H        29.0155753020       21.7113867710        9.7489125017
  H        29.1059715698       21.7749043099        6.6166552552
  H        32.0394929067       18.6265939479       10.9944649101
  H        27.3949229725       19.0720373399        8.0668007583
  H        14.8498857999       19.6583262828       12.1270486915
  H        17.0138496756       19.7108928510       13.3684429688
  H        18.3017577203       16.1910542396       11.2587053100
  H        16.1342215004       16.1550448606       10.0160080898
  H        16.9199259961       17.7214183446       14.8431608437
  H        46.0922054739       15.4383875160       12.0664908496
  H        43.9685139241       15.3708864068       13.3725943696
  H        42.5426741204       18.8050905983       11.2095308693
  H        44.6666576253       18.8467717484        9.8921687592
  H        44.0146137349       17.3090310457       14.8364076128
  H        20.2899841577       17.9262245412       11.4157554488
  H        46.0423743747       15.3793420021        4.0413938130
  H        43.9107961743       15.3082256599        2.7478857372
  H        42.5149283330       18.7784652881        4.8714872648
  H        44.6531300453       18.8356790859        6.1662108612
  H        44.0014185917       17.2890365970        1.2854317608
  H        46.1993200988       26.6828011885        4.6233581292
  H        52.7409994094       21.0626171047        8.1946336046
  H        14.8694833015       19.6849448620        3.9043436640
  H        17.0677880229       19.7743600954        2.7215859524
  H        18.3437234610       16.2546587500        4.8382501320
  H        16.1472284010       16.1894001684        6.0308157196
  H        16.9401717184       17.7454973204        1.2903257588
  H        52.3219963743       21.6732389949        6.2946075332
  H        52.0131128013       21.7019993522        9.4956824511
  H        49.0670195051       18.6076262616        5.2042174641
  H        13.2471593393       19.0167863623        7.9772443444
  H        29.9223016792       12.5672130982       12.3320084828
  H        28.8842840276       10.6162902647       13.4878516629
  H        25.3143138088       11.1202811127       11.1405256377
  H        26.3773123008       13.0503807476        9.9631668944
  H        27.1474853732       11.6953719206       14.8024487873
  H        30.9904668462       22.8018392967       11.9732273768
  H        32.0006653378       24.6613044797       13.2924979208
  H        35.6999138260       24.1483182050       11.1583556461
  H        34.6705012232       22.2923122815        9.8362051532
  H        33.6544722945       23.5865586734       14.7484170105
  H        25.7615212778        8.5827374534       11.4096866569
  H        30.8929717080       22.6723981919        3.8996507464
  H        31.8977363841       24.5601413766        2.6232840546
  H        35.5423259932       24.1286440906        4.8669411375
  H        34.5208111012       22.2440292651        6.1469110848
  H        33.6031822862       23.5708597677        1.1961088540
  H        40.5933323926       17.0675100525        4.6639030732
  H        32.5029395874       14.1579002090        8.2543853379
  H        29.8480593896       12.6031598666        3.8807849352
  H        28.8294547430       10.6948749982        2.6366992236
  H        25.2054683350       11.1596553689        4.9077409447
  H        26.2490979103       13.0479718453        6.1669066915
  H        27.1229235944       11.7184339528        1.2462532587
  H        33.3058170708       14.2170295458        6.4681041335
  H        33.4044024905       14.3647029574        9.6153717109
  H        32.1236100980       18.4477520163        5.1546629301
  H        30.1964528910       14.1882546893        8.0900120179
  H        16.1176654329        2.9634908096       12.1287204500
  H        14.9525463582        4.8206285532       13.3215041491
  H        17.3678192972        7.6859627934       11.2114111211
  H        18.5165668362        5.8184120836       10.0117088704
  H        16.7538238752        5.7397558267       14.7713814665
  H        44.8279075448       32.1403309948       11.9770391544
  H        45.9372747930       30.3415287152       13.3064771435
  H        43.6825980964       27.3781738172       11.1523283131
  H        42.5998819546       29.1900720064        9.8096288535
  H        44.2305316484       29.4368765603       14.7689090278
  H        14.8513399920        8.5462581960       11.3632889714
  H        44.9000790316       32.2341676876        3.9319985098
  H        46.0250092558       30.4131724003        2.6524835228
  H        43.7634615746       27.4841860492        4.8452463024
  H        42.6456190251       29.3179274067        6.1243227061
  H        44.2687362328       29.4706760976        1.2182187965
  H        35.0047470574       26.6193250182        4.6439095780
  H        36.6054319934       35.1341230196        8.1806062228
  H        16.1435732053        3.0132043243        3.9048349876
  H        14.9740639500        4.8565799772        2.6889811951
  H        17.3978289744        7.7473398833        4.7540026515
  H        18.5448040087        5.8934391365        5.9816906277
  H        16.7651208962        5.7557416004        1.2191861243
  H        36.2797474173       34.4817521266        6.2731672809
  H        36.3818660634       34.2087377572        9.4992792917
  H        40.5791743693       33.2023903485        5.1536851718
  H        17.4716787136        1.9475204335        7.9741527924
  H        29.3033221200       19.6356661858       12.5442210748
  H        28.6063321672       18.3691930070        3.8764968941
  H        32.1444740268       15.8081215948        3.6748785351
  H        32.1959819784       16.6500205559       12.5187130683
  H        28.2074326412       18.2609980899       14.5819390549
  H        29.7128926578       14.8587507427       14.2395821683
  H        32.4904450646       17.0719993350        1.0800757136
  H        18.8537075352        0.8689178860       12.3354722825
  H        40.5281896618       35.2288526282        3.9519537962
  H        42.3247916088       34.4195682934        3.5901602173
  H        22.0876460266        0.6922128860       12.3514779210
  H        11.5969050581       18.7128083270       12.3823829508
  H        52.2647761314       18.4310697272        3.6774396549
  H        49.2558613774       16.4764515182        3.5840476655
  H        10.1502647398       15.7981041264       12.2925516237
  H        50.8499054837       17.6923508046        3.9542390889
  H        10.0460852346       17.3945240959       12.0519786799
  H        20.2150139930        0.0022284198       12.0419718084
  H        39.1839391550       36.1245059748        3.6864516108
 Ni        30.6054024486       17.0821076099        2.4154517774
 Ni        31.3671109576       15.6139771542       -0.2486866495
 Ni        30.0533999653       17.4527577196       -0.1671515351
 Ni        30.1423731661       17.6486353604       13.4067203050
  O        10.6499864162       14.3651322031        5.4858806217
  O        12.6131979614       14.6575995362        6.5839138368
  O        49.1477422371       16.8459561999        7.9897734779
  O        50.3501712945       20.9360070438        5.6482209490
  O        48.3484880836       20.5932561667        6.6659861688
  O        11.0514435284       17.0539301948        6.5007363340
  O        50.3208671024       20.8816207277       10.4068242861
  O        48.3466629764       20.5866888681        9.3271057067
  O        49.5434601027       18.2483763768       10.0682888593
  O        12.3589343289       18.6245238810        7.9996395256
  O        48.6932478746       14.1485768935        6.7513028180
  O         8.2098305329       14.2104805973        9.3226002893
  O        10.7352723608       14.5067983244       10.6643110777
  O        12.5717412582       14.5829051339        9.3284859283
  O        22.8447690381        2.0439603069        5.4870911273
  O        21.6060110737        3.5926313809        6.5898498629
  O        42.0581224003       34.1375309506        7.9789574026
  O        37.9813745604       33.1361126846        5.5719868678
  O        39.2169339301       31.5747049642        6.6653691776
  O        20.3086135198        1.0401045603        6.5024984843
  O        38.0250409128       33.1861294862       10.4153896528
  O        39.2186800341       31.5833514836        9.3270838692
  O        40.6523001123       33.7694315114       10.0600464736
  O        18.2561554729        1.3760729779        7.9968196126
  O        44.6221448850       35.1006186652        6.7587800129
  O        24.2054050426        0.0000118747        9.3207223113
  O        22.7536446001        2.0579375717       10.5846451052
  O        21.6263271521        3.5981199061        9.3470607994
  O        27.5628366899       18.6927635814        5.4031900461
  O        26.7316858457       16.9971255063        6.6644604525
  O        30.6633961809       19.4093883244        8.0740951739
  O        33.5930117409       16.2656412375        5.7418801194
  O        34.2750791025       18.1796880858        6.7460391252
  O        29.5716330945       17.0669712265        6.5730354752
  O        33.5343610635       16.3314783835       10.5065708740
  O        34.2718090664       18.1744145151        9.4096101531
  O        31.6484923415       18.3183426882       10.1594623313
  O        30.3105826497       15.1530011476        8.0933736246
  O        28.5541971709       21.0292732633        6.9103079044
  O        28.5080987573       20.9549094634        9.4069031467
  O        27.4933295302       18.6117972680       10.7304166401
  O        26.6951696815       16.9294714629        9.4130104352
  O        13.1482773888       18.6932595226       10.5869699606
  O        13.9193310690       16.9162118578        9.4048792543
  O        50.5957881099       19.3501741919        8.0204894280
  O        47.6819337736       16.3273462838       10.4174901578
  O        46.9498817569       18.1756915229        9.3257802341
  O        11.0695650935       17.0155344621        9.4895714275
  O        47.6760387910       16.3357235202        5.6531657788
  O        46.9258516167       18.2357459017        6.6637540747
  O        49.5684267726       18.3177131819        5.9823177542
  O        10.3185959659       15.1002327743        7.9971044833
  O        52.6707144831       21.0278845577        9.2418199688
  O        12.1467811945       20.8912135792        6.6732568179
  O        13.1071369135       18.6141809373        5.3257210921
  O        13.9575784346       16.9875831243        6.6644009379
  O        29.9623704901       14.5116156351       10.7450446587
  O        28.0799806363       14.6569381886        9.4874796760
  O        32.0717195691       16.8585336297        8.0960650653
  O        30.9401584437       21.0176002403       10.3273409614
  O        32.9495095983       20.5935196933        9.3357871084
  O        29.5670769229       17.0796167166        9.5803928829
  O        30.8755946276       20.8045915574        5.5710430918
  O        32.8645064371       20.5859322092        6.6635657235
  O        31.6738276270       18.2488525681        5.9929677228
  O        28.2825811751       18.6778662230        8.0805133726
  O        32.4852201021       14.2171621124        9.3312424029
  O        32.4024203518       14.2145111394        6.8261790887
  O        29.9045376393       14.4404855403        5.4980894596
  O        28.0063849974       14.6508295949        6.7386310453
  O        17.8892198321        1.9666525066       10.6627676520
  O        18.9563810848        3.5271856446        9.4079842065
  O        39.1685691780       34.1386763225        7.9970810444
  O        43.2801566554       33.0589430018       10.3317165792
  O        42.0343995248       31.5064606529        9.2415612317
  O        20.3179919807        1.0370389173        9.4800492010
  O        43.2760661762       33.1826190216        5.5748814798
  O        42.0052490634       31.5841080105        6.5829667404
  O        40.5789038203       33.7750142191        5.9358465048
  O        22.3676145754        1.3851498478        7.9981721150
  O        36.6728144324       35.0997647198        9.2332655536
  O        16.4458364124        0.0641909055        6.6681781636
  O        17.9366055829        2.0434923400        5.3264273949
  O        18.9193191564        3.5931492993        6.6661134810
  O        29.5742314968       18.5328612666        3.7431515191
  O        29.8644904851       19.0592802051       11.9940316311
  O        31.4366060506       16.3322602995        4.0913450257
  O        31.2928741799       16.4170288405       12.2344440791
  O        31.9920784628       16.2683419718        1.3341096291
  O        30.6793427415       14.7260518400       14.1636348091
  O        29.1162301653       18.6126770067       14.6501959472
  O        39.4568683348       35.2437979509        4.0019938794
  O        19.1415332966        0.0045170629       11.9904955538
  O        41.9695140387       35.1727372655        4.0872018337
  O        21.6912733461       -0.0693494463       11.8959660782
  O        51.3649463803       18.6143178943        4.0054099158
  O        10.7510818547       18.7471709249       11.9049047900
  O        50.0801182783       16.4128370312        4.0916843028
  O         9.5244222935       16.4830713310       11.9912077052
 Zr         9.2968555929       16.0526689656        6.1823363304
 Zr        49.8360688895       16.0067551976        9.7465748663
 Zr        22.0734116608        0.0308102561        6.1888586805
 Zr        42.4612405259       35.1542497851        9.8012517071
 Zr        29.6424507079       19.0989151226        6.3865302188
 Zr        29.5648624842       19.1709030427        9.9294127270
 Zr        11.0376432234       19.0519549082        9.8276311060
 Zr        11.0434626237       19.1548652942        6.2510679345
 Zr        31.3262643348       16.0998976919        9.9227702379
 Zr        31.3823234267       15.9945001874        6.2466576818
 Zr        18.6015620992       -0.0008909598        9.7632186425
 Zr        18.5071319936       -0.0072550141        6.2137438616
 Zr        12.3019000798       16.3233440431        7.9901562899
 Zr        48.6158238018       18.8329104358        8.0104080621
 Zr        20.3169649584        2.4750339465        7.9915085111
 Zr        40.6434745172       32.6874316080        7.9777979722
 Zr        28.3416679500       16.3406754697        8.0892777231
 Zr        32.6377727491       18.8084429572        8.0682878700
  H        29.4589763242       17.2270246579        1.2971244189
  H        29.6332906332       19.2552251409        3.0881138522
  H        30.9238982333       15.2954280957       13.3442222654
