     573
 i =      125, E =     -4762.7866888829
  C        11.8589601114       14.0535988400        5.7415480550
  C        12.4565209313       12.8906737883        5.0233368122
  C        11.7047168696       12.1715225470        4.0819185287
  C        12.2811207812       11.1093477642        3.3895558766
  C        13.6218044158       10.7398013629        3.6170845959
  C        14.3551019948       11.4436258949        4.5902661570
  C        13.7822008841       12.5086045943        5.2817791909
  C        14.2613496368        9.6491502318        2.8436558691
  C        14.2565858640        9.6570316598        1.4219518531
  C        13.7433909216       10.7591625685        0.6680785837
  C        49.1270468169       21.2329995924        5.8796350333
  C        48.5503230021       22.4010756696        5.1525442750
  C        49.3003117216       23.0683357643        4.1714936077
  C        48.7334029218       24.1075373776        3.4383233538
  C        47.4029329181       24.5093087595        3.6670984038
  C        46.6720322393       23.8605035891        4.6806890919
  C        47.2344639648       22.8155379963        5.4099877010
  C        46.7726192379       25.5870186197        2.8698654660
  C        46.7613186899       25.5573179637        1.4481012757
  C        47.2611086691       24.4421627632        0.7046012872
  C        14.8605684734        8.5707341370        0.7086633618
  C        14.8922458386        8.5972597027        3.5202817133
  C        49.1132045644       21.2033225977       10.1453303458
  C        48.5277403002       22.3647020176       10.8726009723
  C        49.2669314625       23.0254134752       11.8655285385
  C        48.6905834425       24.0599746868       12.5970006013
  C        47.3601751872       24.4567253050       12.3587529530
  C        46.6397869202       23.8118012550       11.3352310887
  C        47.2133626796       22.7758877068       10.6034560415
  C        46.7217009987       25.5317235392       13.1497570704
  C        46.7333186297       25.5280573764       14.5714674337
  C        47.2487178829       24.4288162492       15.3278385033
  C        40.6302508977       17.1007442946       15.3243622169
  C        40.6528068819       17.1452464816       12.5152437868
  C        11.8831660393       14.0866733003       10.2853918182
  C        12.4726642336       12.9110095621       10.9897170504
  C        11.7151710420       12.1777048479       11.9157640643
  C        12.2818441631       11.0953180432       12.5842132536
  C        13.6207275946       10.7217569506       12.3524763395
  C        14.3587182391       11.4374575763       11.3917845044
  C        13.7931844340       12.5185459744       10.7190373095
  C        14.2543304924        9.6249820767       13.1228722695
  C        14.2528891118        9.6448175327       14.5447195488
  C        13.7429335897       10.7537082853       15.2918233133
  C        22.5105497496        3.2458820422        5.7518008221
  C        23.2192974585        4.3540830485        5.0506789348
  C        24.2169535953        4.0806454134        4.1031878938
  C        24.8375178407        5.1244282100        3.4213614927
  C        24.4759867776        6.4645283672        3.6656020215
  C        23.5062781728        6.7293806662        4.6499298653
  C        22.8815960426        5.6876406308        5.3306155805
  C        25.0763079196        7.5750395330        2.8909127327
  C        25.0584490284        7.5647219232        1.4690082011
  C        24.3644644174        6.5612391940        0.7208543422
  C        38.2973718446       31.9276558759        5.8521871088
  C        37.5536658629       30.8379894171        5.1520031729
  C        36.5855261685       31.1442737518        4.1830109809
  C        35.9533313587       30.1262472272        3.4735807577
  C        36.2733637712       28.7745494196        3.7090919019
  C        37.2106806793       28.4755646076        4.7161165630
  C        37.8466970691       29.4927214170        5.4250872257
  C        35.6633395371       27.6864304079        2.9081351146
  C        35.7066061925       27.7029108486        1.4860292424
  C        36.4201607052       28.7048615289        0.7550719090
  C        25.6825236382        8.6350288489        0.7501922340
  C        25.6612372867        8.6562301639        3.5629017494
  C        38.3312104548       31.9617079856       10.1604148717
  C        37.6148215138       30.8896183979       10.9117204207
  C        36.6822141434       31.2015978777       11.9129682933
  C        36.0712396796       30.1862835412       12.6469427296
  C        36.3780340202       28.8325099883       12.4034374422
  C        37.2924783462       28.5303090770       11.3756500422
  C        37.9052788284       29.5422489996       10.6429300168
  C        35.7605629779       27.7349287956       13.1842145587
  C        35.7560114425       27.7281100859       14.6068514060
  C        36.4425783553       28.7177095691       15.3783359521
  C        46.1353851314       26.6207385519       15.2816104465
  C        46.0878593198       26.5801556638       12.4737107741
  C        22.4631519442        3.2573721335       10.2582901780
  C        23.1604919417        4.3661589435       10.9792459863
  C        24.1631776647        4.0804280536       11.9198983450
  C        24.7937909293        5.1105418400       12.6141743990
  C        24.4427656201        6.4573144748       12.3913168913
  C        23.4636064282        6.7361628200       11.4187275019
  C        22.8283016063        5.7064003780       10.7249182402
  C        25.0732508015        7.5563856898       13.1663135380
  C        25.0577295008        7.5542090470       14.5892777388
  C        24.3614259227        6.5579539746       15.3439444874
  C        26.6813629531       17.8791658467        5.7300089019
  C        25.3814708087       17.9636595265        4.9978066376
  C        25.1376186439       18.9461902338        4.0255061158
  C        23.9103054201       18.9930290000        3.3633206940
  C        22.8910788032       18.0594456313        3.6467799793
  C        23.1343641655       17.1006508235        4.6485424777
  C        24.3588269930       17.0507114531        5.3100697961
  C        21.6077325646       18.0483251055        2.8973028212
  C        21.5971738193       17.9990690565        1.4751772016
  C        22.7968381085       17.8525385766        0.7090823286
  C        34.4299789761       17.2461665098        5.9150213383
  C        35.7215426368       17.1667620006        5.1740353030
  C        35.9086789965       16.1973747453        4.1759522134
  C        37.0907906521       16.1639184229        3.4410684223
  C        38.1169042903       17.0982925831        3.6835639098
  C        37.9324868685       18.0455798174        4.7089534746
  C        36.7489876409       18.0845713065        5.4412025398
  C        39.3713517955       17.0957807184        2.8974621687
  C        39.3688762687       17.1119769708        1.4755831280
  C        38.1633552124       17.2376600281        0.7159871374
  C        20.3452796546       18.0044904464        0.7754701663
  C        20.3857797731       18.0542032436        3.5882514151
  C        34.4733239170       17.2422941269       10.1870983767
  C        35.7734393137       17.1659460462       10.9096479091
  C        35.9812810904       16.1834072776       11.8894192327
  C        37.1686009819       16.1580837327       12.6147641285
  C        38.1750476505       17.1151983611       12.3812681357
  C        37.9730065422       18.0726697558       11.3696891292
  C        36.7841936348       18.1027889096       10.6461229675
  C        39.4209071961       17.1286783635       13.1779719425
  C        39.3944969847       17.1302582174       14.5991482316
  C        38.1755317408       17.2447818819       15.3392132583
  C        35.1170789259       26.6496664665       15.3046590004
  C        35.1730531242       26.6661580018       12.4947858203
  C        26.5646158388       17.8299010286       10.3251348660
  C        25.2490933192       17.8820466551       11.0258657198
  C        24.9835035987       18.8927805205       11.9623336741
  C        23.7654505089       18.9215216838       12.6352667369
  C        22.7830576126       17.9392495881       12.3974468449
  C        23.0423462693       16.9541654098       11.4270022347
  C        24.2609425580       16.9234802335       10.7512698886
  C        21.5222409630       17.9241295419       13.1762079729
  C        21.5536655686       17.9334767838       14.5978525842
  C        22.7759814666       17.8217506343       15.3333531198
  C        14.0452956057       17.8270415183       10.2923978223
  C        15.3454243230       17.8817945528       11.0257268582
  C        15.6008787389       18.8916578867       11.9668028686
  C        16.8075733343       18.9162310432       12.6635007202
  C        17.7936339787       17.9334394014       12.4423281586
  C        17.5410280404       16.9445173620       11.4725619752
  C        16.3340693437       16.9159629737       10.7765314138
  C        19.0657120664       17.9278212185       13.2070702590
  C        19.0725673661       17.9477034909       14.6296786273
  C        17.8705388014       17.8602268654       15.3999990623
  C        46.8060038567       17.2187255989       10.1594829324
  C        45.5177966179       17.1566122685       10.9077806035
  C        45.3148301971       16.1776314063       11.8927033373
  C        44.1350155461       16.1578303861       12.6315944058
  C        43.1285464881       17.1174158773       12.4077043670
  C        43.3292648707       18.0767478103       11.3966926944
  C        44.5095969295       18.1001510020       10.6584108332
  C        41.8754638957       17.1250043925       13.1960796218
  C        41.8784769186       17.1157740248       14.6180464169
  C        43.0860331202       17.2047530576       15.3794354686
  C        20.3234209132       17.9712881379       15.3303361198
  C        20.2860564976       17.9011110133       12.5175826079
  C        46.7841239620       17.2289686053        5.8911976014
  C        45.4788178384       17.1160582558        5.1802600393
  C        45.2620848487       16.1134483984        4.2227766969
  C        44.0731217742       16.0798697718        3.4983321395
  C        43.0711620486       17.0457425224        3.7144936943
  C        43.2774133486       18.0167286809        4.7122870417
  C        44.4676658689       18.0568221509        5.4316930461
  C        41.8259102699       17.0649523410        2.9154927556
  C        41.8531814277       17.0834417488        1.4945270889
  C        43.0739969876       17.1872181235        0.7560685684
  C        46.1532659787       26.6372021396        0.7263789678
  C        46.1628428678       26.6562211135        3.5360191711
  C        14.0531295089       17.8402189375        5.7123651807
  C        15.3819714514       17.9375286356        5.0332692995
  C        15.6496153071       18.9653869823        4.1156478825
  C        16.8818148432       19.0260957450        3.4667732174
  C        17.8790381500       18.0586961910        3.7066919549
  C        17.6187822679       17.0609994405        4.6646299964
  C        16.3883727741       16.9999930895        5.3179764384
  C        19.1467616682       18.0501432763        2.9312456560
  C        19.1144858173       18.0101159417        1.5089652596
  C        17.8909038135       17.8882405708        0.7761180394
  C        28.8114098000       14.0867087781       10.3603128200
  C        28.2037240690       12.9170816063       11.0577878335
  C        28.9240383249       12.1932735191       12.0196211814
  C        28.3262486502       11.1222636805       12.6802027168
  C        26.9948900176       10.7501304691       12.4027454635
  C        26.2968879213       11.4558214660       11.4060437966
  C        26.8912553856       12.5276250895       10.7451382365
  C        26.3249779440        9.6711674532       13.1659516925
  C        26.3019128476        9.7020302579       14.5872295651
  C        26.7972392322       10.8182935028       15.3334190647
  C        32.1743171537       21.2399410003       10.1564174880
  C        32.7666701713       22.4086060161       10.8725228783
  C        32.0163160420       23.0916515416       11.8422389301
  C        32.5857738477       24.1345581979       12.5667934796
  C        33.9216111935       24.5224454578       12.3445117663
  C        34.6541373859       23.8582653540       11.3425371236
  C        34.0869745613       22.8105825696       10.6191304822
  C        34.5496561226       25.5970544535       13.1478578188
  C        34.5316130411       25.5672319406       14.5695499991
  C        34.0201797647       24.4497751269       15.3017902309
  C        25.6883120325        8.6252214532       15.3049719861
  C        25.6931244401        8.6172462523       12.4918022006
  C        32.0862013082       21.1600980999        5.8299576684
  C        32.6460445632       22.3276836914        5.0912074602
  C        31.9179939575       22.9705954468        4.0776806057
  C        32.4863567863       24.0249956840        3.3646679847
  C        33.7972856001       24.4645598141        3.6410310843
  C        34.5044640121       23.8344141924        4.6834801797
  C        33.9411433036       22.7795714228        5.3949617168
  C        34.4388530994       25.5552017210        2.8693894132
  C        34.4739398142       25.5461123904        1.4471992157
  C        33.9925827914       24.4400908146        0.6780847939
  C        40.6169506588       17.0875686084        0.7689991907
  C        40.5941628217       17.0884703492        3.5785048298
  C        28.7085683705       14.0933215908        5.8166877464
  C        28.0913939748       12.9527502251        5.0812593109
  C        28.8286198803       12.2454357810        4.1182557892
  C        28.2457181430       11.1914922129        3.4201578083
  C        26.9095285574       10.8135714604        3.6607846599
  C        26.1887422173       11.5068805633        4.6517283335
  C        26.7690828303       12.5646045108        5.3499616512
  C        26.2728561984        9.7200005651        2.8868741325
  C        26.2766643476        9.7273815332        1.4643829299
  C        26.7826969077       10.8321302101        0.7095922330
  C        18.1354707954        3.1811690007       10.3172416493
  C        17.4063454413        4.2783725305       11.0158434173
  C        16.3904212964        4.0001584602       11.9432089274
  C        15.7428189976        5.0402301924       12.6066485603
  C        16.0950346449        6.3839163822       12.3671097443
  C        17.0846619088        6.6532920671       11.4035533223
  C        17.7336578868        5.6158677567       10.7385451460
  C        15.4707370639        7.4916422235       13.1301391675
  C        15.4858685770        7.4908164417       14.5518506908
  C        16.1874463153        6.4972048562       15.3049996248
  C        42.9458661864       31.8596509529       10.0728876030
  C        43.6462800799       30.7719391708       10.8167766977
  C        44.5913827996       31.0932887961       11.8032586072
  C        45.1970938746       30.0877477787       12.5509385019
  C        44.8711168172       28.7346185967       12.3357503291
  C        43.9458401304       28.4202692975       11.3220133309
  C        43.3370400017       29.4253927202       10.5739356229
  C        45.4886166671       27.6552882024       13.1389737022
  C        45.4927346973       27.6809013135       14.5606790305
  C        44.8057430374       28.6889740201       15.3073575962
  C        14.8568561490        8.5632651236       15.2642342061
  C        14.8756064161        8.5635006374       12.4515551743
  C        42.9465113066       31.9617098870        5.8089911514
  C        43.6919079676       30.8855681491        5.0957068769
  C        44.6561092484       31.1915272779        4.1230240598
  C        45.2777184504       30.1719667937        3.4053360688
  C        44.9544406905       28.8215856003        3.6433317509
  C        44.0215004490       28.5238964639        4.6546252165
  C        43.3931568642       29.5406247324        5.3667880359
  C        45.5633823479       27.7241781989        2.8580187838
  C        45.5334413965       27.7174207815        1.4367141352
  C        44.8271002992       28.7076359735        0.6837530869
  C        35.0897056841       26.6382057881        0.7501058284
  C        35.0456974916       26.6127364406        3.5605889148
  C        18.1487346824        3.2471653280        5.7065938512
  C        17.4303521550        4.3439513905        4.9972295787
  C        16.4150091092        4.0527651328        4.0737578710
  C        15.7667692041        5.0834451134        3.3984124312
  C        16.1216206295        6.4286558359        3.6210453699
  C        17.1132199936        6.7119574788        4.5781010507
  C        17.7608298716        5.6829996613        5.2578505251
  C        15.4910556313        7.5243446988        2.8486515988
  C        15.4968409263        7.5076524943        1.4275238937
  C        16.1936580930        6.5060021052        0.6808115495
  H        10.6725040614       12.4654628158        3.9050773714
  H        11.6947791995       10.5506942295        2.6631922197
  H        15.3922748403       11.1693656250        4.7717078202
  H        14.3518436639       13.0721498252        6.0168358904
  H        13.3763772464       11.6312688018        1.2014195013
  H        50.3229665387       22.7481731652        3.9866423064
  H        49.3198891067       24.6227452447        2.6807022648
  H        45.6425975712       24.1613973565        4.8639881154
  H        46.6635125248       22.2902909806        6.1721281876
  H        47.6296989405       23.5758090611        1.2462963540
  H        14.8727723058        8.5886084058        4.6085917228
  H        50.2869954428       22.7025888946       12.0604078583
  H        49.2689971517       24.5754438167       13.3604816102
  H        45.6103906816       24.1090496452       11.1461451591
  H        46.6526011966       22.2536939661        9.8318689665
  H        47.6074577917       23.5516864715       14.7969254678
  H        40.6605852383       17.1189124500       11.4272942273
  H        48.6872253841       14.0948764818        7.8000990855
  H        10.6816395060       12.4666135101       12.0930646095
  H        11.6900511708       10.5248033241       13.2968108787
  H        15.3942358648       11.1597945812       11.2059811093
  H        14.3655467089       13.0879834958        9.9905699668
  H        13.3761899330       11.6223719013       14.7532104394
  H        47.9302799451       14.2185498488        9.7107666777
  H        47.7801362281       14.3738937945        6.4953930701
  H        49.0843436817       18.5523321904       10.8674574621
  H        10.4163770887       14.1343491811        7.9986288072
  H        24.4844716952        3.0438643451        3.9114842464
  H        25.6118597081        4.9115732395        2.6875351209
  H        23.2190398926        7.7604203804        4.8455770522
  H        22.1111060032        5.8836064038        6.0722478468
  H        23.8018999226        5.8042221178        1.2594009256
  H        36.3531934120       32.1883502432        3.9866962981
  H        35.2041842078       30.3701983507        2.7234530944
  H        37.4671889603       27.4355436486        4.9072179496
  H        38.5958356982       29.2671142890        6.1804785597
  H        36.9806885820       29.4541094940        1.3064650264
  H        25.6886399284        8.6423818496        4.6510005743
  H        36.4552959389       32.2464543401       12.1125546732
  H        35.3410702760       30.4352109456       13.4138732505
  H        37.5435395138       27.4895833249       11.1816584178
  H        38.6318172797       29.3128819617        9.8671638782
  H        37.0213272721       29.4764432195       14.8592586392
  H        46.1094537559       26.5876064464       11.3856789756
  H        44.6684702913       35.1163424610        7.8139707014
  H        24.4393953240        3.0420918140       12.0890339655
  H        25.5742208887        4.8804631979       13.3364093848
  H        23.1802715725        7.7708296471       11.2364652835
  H        22.0567142839        5.9207224264        9.9890023266
  H        23.7959149309        5.7989883002       14.8111442346
  H        44.9544776470       34.3909999635        9.6955591131
  H        44.9023451566       34.2071813098        6.4904883334
  H        40.6670785418       33.2097660913       10.8534550235
  H        23.1502996426        1.9585796948        8.0050225991
  H        25.9174210600       19.6714077759        3.8035086059
  H        23.7282066645       19.7627586204        2.6163759135
  H        22.3630534606       16.3682496267        4.8778923767
  H        24.5519424429       16.2965780197        6.0688690677
  H        23.7407884780       17.7310530546        1.2323343349
  H        35.1113835491       15.4826148752        3.9848013230
  H        37.2337357583       15.4052057790        2.6747393560
  H        38.7170074134       18.7745191938        4.9012537196
  H        36.5914946279       18.8315187443        6.2156150390
  H        37.2221206470       17.3592247131        1.2443230965
  H        20.3999924730       18.1075010218        4.6755839624
  H        35.1937221956       15.4584775114       12.0809141645
  H        37.3288083644       15.3934583808       13.3716692109
  H        38.7444110486       18.8174743287       11.1853414739
  H        36.6070055112       18.8591535208        9.8852828834
  H        37.2436472519       17.3706240111       14.7955175344
  H        35.1550384493       26.6937322616       11.4069208816
  H        28.5159537871       21.0840565348        8.0073114892
  H        25.7447847844       19.6468760356       12.1478910874
  H        23.5610337319       19.7085778852       13.3578265579
  H        22.2932396049       16.1882470664       11.2368220102
  H        24.4766403683       16.1493124398       10.0187750171
  H        23.7036208700       17.6785277897       14.7871108706
  H        29.0215471728       21.7088238651        9.7574321546
  H        29.0917404003       21.7811389063        6.6085328859
  H        32.0564179532       18.5060473502       11.0257668858
  H        27.4065491238       19.0841620947        8.0861892995
  H        14.8439572037       19.6543929006       12.1353478301
  H        17.0024386008       19.7075596798       13.3841688517
  H        18.2909173412       16.1766534830       11.2935968924
  H        16.1292751077       16.1406329530       10.0420281187
  H        16.9246741481       17.7369953139       14.8804059671
  H        46.0986786711       15.4454954192       12.0718717183
  H        43.9777962411       15.3901773015       13.3860672911
  H        42.5602800044       18.8258867694       11.2199258569
  H        44.6807896447       18.8546644567        9.8941823846
  H        44.0289195808       17.3199710665       14.8524866584
  H        20.2728106803       17.9163440910       11.4292010136
  H        46.0416305867       15.3757199423        4.0468462154
  H        43.9084650710       15.3025467053        2.7553257156
  H        42.5083784049       18.7664617609        4.8862195070
  H        44.6484168904       18.8260983527        6.1784642695
  H        44.0077025298       17.2876752091        1.3017694226
  H        46.2000013711       26.6828619205        4.6234527688
  H        52.7411109255       21.0626529838        8.1946788334
  H        14.8807000915       19.7109984901        3.9253809665
  H        17.0826861383       19.8260450189        2.7572315921
  H        18.3773455437       16.3060032564        4.8611183989
  H        16.1770042435       16.2147445772        6.0399771981
  H        16.9604919729       17.7865503113        1.3266425910
  H        52.3220611507       21.6730594274        6.2943584955
  H        52.0130129746       21.7017764939        9.4956881137
  H        49.0678204367       18.6070292861        5.2040056022
  H        13.2478783889       19.0166204728        7.9788491051
  H        29.9488975419       12.4859413144       12.2377106383
  H        28.8871064785       10.5611433004       13.4245582762
  H        25.2679556262       11.1800612309       11.1843750938
  H        26.3480214335       13.0935652256        9.9924330553
  H        27.1630569561       11.6865733138       14.7936097908
  H        30.9911040752       22.7789002865       12.0251792062
  H        31.9983510413       24.6626147248       13.3147899193
  H        35.6880463664       24.1470237360       11.1646528928
  H        34.6596817006       22.2726656022        9.8671802771
  H        33.6737690647       23.5803076317       14.7504434589
  H        25.7294284455        8.5955397231       11.4040124245
  H        30.9110730792       22.6261292568        3.8528147948
  H        31.9126658812       24.5250112442        2.5873275855
  H        35.5187997488       24.1596205779        4.9052403639
  H        34.4956513291       22.2746343732        6.1822429933
  H        33.6259828868       23.5617559562        1.2012226033
  H        40.5859394905       17.0493148174        4.6661172675
  H        32.5164343723       14.1512409134        8.2503073715
  H        29.8617484850       12.5293431740        3.9330261436
  H        28.8261823612       10.6424723880        2.6819652806
  H        25.1547739359       11.2286125654        4.8451216762
  H        26.2071834367       13.1150949798        6.1008611943
  H        27.1358766781       11.7116122019        1.2403575452
  H        33.2951976028       14.1945700200        6.4326047875
  H        33.4110811049       14.3961098435        9.6031201020
  H        32.0814418167       18.5353978908        5.0479102216
  H        30.2387478132       14.1968652924        8.0713814058
  H        16.1181020952        2.9637126231       12.1295219875
  H        14.9532249682        4.8210114790       13.3221943513
  H        17.3674682568        7.6861026532       11.2106395686
  H        18.5159747129        5.8184962797       10.0109936266
  H        16.7541758642        5.7399966877       14.7714999478
  H        44.8274041268       32.1403898266       11.9777115771
  H        45.9366935556       30.3415967608       13.3071120729
  H        43.6836980008       27.3781362836       11.1514365199
  H        42.6010090328       29.1900087859        9.8087216115
  H        44.2305106507       29.4368617469       14.7690957457
  H        14.8520478180        8.5468917882       11.3633284367
  H        44.8993437827       32.2342262804        3.9312746495
  H        46.0243611948       30.4132946966        2.6518690002
  H        43.7651278432       27.4841100157        4.8466673278
  H        42.6471585197       29.3177743835        6.1257046939
  H        44.2687765219       29.4706597334        1.2183288531
  H        34.9933352673       26.6244074646        4.6477207106
  H        36.6054009260       35.1341631589        8.1805341074
  H        16.1437525265        3.0132291549        3.9041138226
  H        14.9743385945        4.8567196432        2.6884126578
  H        17.3970103287        7.7473793411        4.7548116464
  H        18.5439113570        5.8934714286        5.9823859084
  H        16.7652612092        5.7558734128        1.2192209098
  H        36.2791663843       34.4823657093        6.2728516573
  H        36.3813421344       34.2089150817        9.4991886732
  H        40.5800053847       33.2028088220        5.1539374875
  H        17.4712851541        1.9477095607        7.9741220271
  H        29.0520998001       19.1572877347       12.5903814327
  H        30.7900023694       15.1842419418        3.8974962480
  H        31.4889050995       15.5979596182       12.5153156137
  H        28.4003971004       17.4782921966       14.9586396278
  H        29.7923005813       15.1637289322       14.5900488122
  H        32.0640330605       19.9746152257        0.8605829134
  H        31.9216711211       18.5458826166        1.5835760004
  H        28.6523433009       18.5733109606        1.9221116995
  H        32.5823923533       18.5079984022       15.2096218201
  H        18.8532742421        0.8690443703       12.3350822192
  H        40.5282386718       35.2287887817        3.9519125280
  H        42.3253850310       34.4201507540        3.5898208775
  H        22.0876191990        0.6924919121       12.3515800422
  H        11.5968631493       18.7132662246       12.3823159876
  H        52.2650620474       18.4308781712        3.6769460559
  H        49.2553206007       16.4768135981        3.5844411694
  H        10.1508961776       15.7982253599       12.2927724403
  H        50.8501746018       17.6923370286        3.9542766038
  H        10.0465640497       17.3946084304       12.0519948739
  H        20.2145974721        0.0023798126       12.0419820787
  H        39.1839640545       36.1245527866        3.6865614005
 Ni        30.2641431689       16.9948837572        2.6662402640
 Ni        31.4095525713       16.2791086862       -0.0840829319
 Ni        30.2288208136       18.4784023722        0.0018706364
 Ni        30.0942757775       17.1936883402       13.2394057161
  O        10.6501173572       14.3650875499        5.4858859883
  O        12.6133610137       14.6577064274        6.5839062437
  O        49.1479671020       16.8458817034        7.9896866649
  O        50.3503867377       20.9356342304        5.6479305237
  O        48.3486000115       20.5932800888        6.6658631259
  O        11.0520707072       17.0536002945        6.5008393517
  O        50.3209648766       20.8816819824       10.4068232914
  O        48.3467303257       20.5867397611        9.3270699585
  O        49.5438905543       18.2483465672       10.0680805179
  O        12.3595284602       18.6244547742        7.9994241087
  O        48.6933043295       14.1485507276        6.7513355167
  O         8.2099842040       14.2103585087        9.3224837298
  O        10.7354620464       14.5067300667       10.6642763635
  O        12.5719135178       14.5829638627        9.3283622779
  O        22.8447435644        2.0446001286        5.4868913365
  O        21.6050580829        3.5921312923        6.5903917454
  O        42.0582137736       34.1375693056        7.9790373925
  O        37.9813386248       33.1362339131        5.5719253928
  O        39.2169691750       31.5747907883        6.6653851993
  O        20.3085844339        1.0399522080        6.5023047149
  O        38.0244776739       33.1853669605       10.4156183037
  O        39.2183964446       31.5829421559        9.3274480496
  O        40.6522917639       33.7693919220       10.0601182536
  O        18.2557227996        1.3761871856        7.9967745056
  O        44.6221516166       35.1006519874        6.7587925425
  O        24.2054045773        0.0000351534        9.3207335215
  O        22.7534326820        2.0585765433       10.5843586047
  O        21.6251674349        3.5968724551        9.3441848271
  O        27.6318765517       18.6926266106        5.4136850799
  O        26.7410750617       17.0037511977        6.6584293334
  O        30.6657885110       19.4048795810        8.0768651603
  O        33.5531566769       16.3501394062        5.6650719018
  O        34.2940807454       18.2303618490        6.7300614246
  O        29.5744816925       17.0657933943        6.5846771842
  O        33.6122584129       16.3275526656       10.4084405107
  O        34.3060232128       18.2455352842        9.4075757676
  O        31.6522265108       18.3156848575       10.1603508898
  O        30.3260354822       15.1642928630        8.0745366893
  O        28.5532544135       21.0308460079        6.9139390098
  O        28.5182239449       20.9515665129        9.4117581812
  O        27.4548203019       18.6808206301       10.6591052868
  O        26.6925874973       16.9314315999        9.4148081771
  O        13.1479812760       18.6931139313       10.5874300838
  O        13.9200321784       16.9165165277        9.4059494483
  O        50.5963509898       19.3501121972        8.0199138841
  O        47.6841752744       16.3267485138       10.4171125881
  O        46.9515443027       18.1756728249        9.3249374248
  O        11.0704716290       17.0150931643        9.4893514155
  O        47.6762010525       16.3354335940        5.6533999259
  O        46.9262639194       18.2356411533        6.6639314211
  O        49.5692522966       18.3176576659        5.9822838416
  O        10.3188608167       15.1001873451        7.9970205599
  O        52.6707682404       21.0278441256        9.2418053272
  O        12.1468579524       20.8911679621        6.6732351357
  O        13.1101096750       18.6140486060        5.3253185750
  O        13.9604829395       16.9885578257        6.6628606281
  O        30.0009008406       14.4342301576       10.6614603553
  O        28.0780982855       14.6592811823        9.4806812247
  O        32.1034134975       16.9126000656        8.0574707361
  O        30.9606423542       20.9460248953       10.4165095624
  O        32.9422757974       20.6075636300        9.3443229640
  O        29.5649835737       17.0772483815        9.5722413635
  O        30.8709175070       20.8047677619        5.5719280965
  O        32.8608057078       20.5844173265        6.6609997611
  O        31.5954622324       18.2431349438        5.8358418054
  O        28.2901399496       18.6800117281        8.0868841676
  O        32.4938901019       14.2154231257        9.3257597831
  O        32.4041673785       14.2224767221        6.8194742844
  O        29.9011168639       14.4320458014        5.5000294167
  O        28.0063053681       14.6466912756        6.7363181753
  O        17.8892751431        1.9666394002       10.6627818694
  O        18.9562802597        3.5271422640        9.4079897044
  O        39.1685504671       34.1386830228        7.9970971872
  O        43.2801628519       33.0590131764       10.3317052085
  O        42.0343538186       31.5065191728        9.2416177679
  O        20.3177944965        1.0368723582        9.4800986764
  O        43.2759960459       33.1825939963        5.5748991239
  O        42.0051870956       31.5841466902        6.5829988811
  O        40.5791909339       33.7753653342        5.9361431000
  O        22.3675006914        1.3848473567        7.9980182020
  O        36.6728059636       35.0997571013        9.2332370080
  O        16.4458109288        0.0642174023        6.6682362811
  O        17.9365628549        2.0433953205        5.3264044708
  O        18.9190858679        3.5931027120        6.6660131255
  O        29.7754696442       18.7580052095       12.0705758377
  O        31.2581377363       16.0393395748        4.0071672415
  O        31.3073364650       16.4027698791       11.9875285429
  O        32.0220255742       16.9441036301        1.5748443964
  O        29.1083067252       17.8768522691        1.4178914381
  O        30.5654513674       15.6918573525       14.3276648723
  O        31.7568161764       18.0880322717       14.9110749229
  O        31.4308420876       19.4117114799        1.3374038929
  O        29.0617389118       18.0816821266       14.5699415009
  O        39.4568748257       35.2437870061        4.0019978207
  O        19.1411863900        0.0044710319       11.9905432033
  O        41.9694771175       35.1727632740        4.0872416747
  O        21.6913291781       -0.0690340171       11.8959299863
  O        51.3653808863       18.6142002539        4.0054374294
  O        10.7509840237       18.7472099817       11.9048682619
  O        50.0797212062       16.4128178393        4.0917750646
  O         9.5249932097       16.4830117741       11.9911773186
 Zr         9.2973189930       16.0526110190        6.1825806858
 Zr        49.8370979277       16.0064403994        9.7463397296
 Zr        22.0737572819        0.0309816674        6.1888195459
 Zr        42.4614310759       35.1545215014        9.8013164475
 Zr        29.6243517614       19.0992257372        6.3864744834
 Zr        29.5684876007       19.1447470022        9.9454378172
 Zr        11.0383248391       19.0514773434        9.8274771572
 Zr        11.0449410597       19.1543104360        6.2505466323
 Zr        31.3461480710       16.1001532367        9.8709177277
 Zr        31.3800496718       16.0141398780        6.2446381619
 Zr        18.6015910363       -0.0005558830        9.7631952408
 Zr        18.5072164470       -0.0067757335        6.2137138030
 Zr        12.3038681266       16.3238457520        7.9894726459
 Zr        48.6168785313       18.8329092349        8.0099599041
 Zr        20.3161418462        2.4749160981        7.9911045918
 Zr        40.6440728785       32.6878707854        7.9779393518
 Zr        28.3327096918       16.3435547485        8.0868435454
 Zr        32.6558154694       18.8415552421        8.0774119078
  H        29.1546990418       17.0754735957        3.5899008009
  H        32.5014142964       16.3217536584        2.1515251994
  H        31.1292717462       15.0045654007        0.5530332248
