     573
 i =      324, E =     -4762.8373772220
  C        11.8587236712       14.0535361018        5.7415744893
  C        12.4562684387       12.8905948950        5.0232850731
  C        11.7046254925       12.1716963618        4.0815727444
  C        12.2810526465       11.1095188948        3.3892217654
  C        13.6216249232       10.7397671350        3.6169880702
  C        14.3547300285       11.4433003288        4.5905203116
  C        13.7818129353       12.5082649567        5.2820176322
  C        14.2611767110        9.6491051443        2.8436206495
  C        14.2566678724        9.6571279886        1.4219256993
  C        13.7435180808       10.7592598889        0.6680209858
  C        49.1268787636       21.2332076470        5.8796688608
  C        48.5501741952       22.4012130205        5.1526372193
  C        49.3002054955       23.0684954213        4.1716131450
  C        48.7332943140       24.1076519375        3.4384140997
  C        47.4027656114       24.5093413871        3.6670477138
  C        46.6718440808       23.8605491534        4.6806399176
  C        47.2342747709       22.8156314775        5.4099902313
  C        46.7725271328       25.5870582868        2.8697893135
  C        46.7615453605       25.5574545545        1.4480209134
  C        47.2614475990       24.4423404534        0.7045331153
  C        14.8606610812        8.5708117656        0.7086814894
  C        14.8919465879        8.5971630728        3.5202687314
  C        49.1132330306       21.2034154486       10.1453544073
  C        48.5279243628       22.3648596935       10.8724494306
  C        49.2671274768       23.0254857738       11.8654414307
  C        48.6908405383       24.0601074044       12.5968525258
  C        47.3604262692       24.4568982701       12.3586325464
  C        46.6400303838       23.8120462026       11.3350621135
  C        47.2135399017       22.7760805565       10.6033282417
  C        46.7220065149       25.5318831185       13.1496696608
  C        46.7336995754       25.5282256276       14.5713778719
  C        47.2491677606       24.4290319264       15.3277695587
  C        40.6331397630       17.1027049772       15.3204581047
  C        40.6541899202       17.1424900224       12.5114350539
  C        11.8830799000       14.0865493114       10.2854811020
  C        12.4725186473       12.9108609150       10.9898237320
  C        11.7149785447       12.1774945898       11.9157743463
  C        12.2816671184       11.0951227475       12.5842558630
  C        13.6205445402       10.7215611199       12.3524821208
  C        14.3585102606       11.4372372722       11.3917556622
  C        13.7929842139       12.5183274105       10.7190147553
  C        14.2541782670        9.6248154220       13.1228681290
  C        14.2529500300        9.6448187320       14.5447033006
  C        13.7430472683       10.7537601498       15.2917678663
  C        22.5117004915        3.2455885911        5.7524279543
  C        23.2243965683        4.3531406212        5.0528050494
  C        24.2192898931        4.0770843464        4.1031725832
  C        24.8432112296        5.1192406961        3.4217367172
  C        24.4883768016        6.4604520557        3.6691645887
  C        23.5218951812        6.7280062385        4.6558577575
  C        22.8932637748        5.6876655732        5.3355636717
  C        25.0906868964        7.5691670361        2.8927791808
  C        25.0590519738        7.5629375927        1.4711363261
  C        24.3540889682        6.5643790056        0.7266128094
  C        38.3023597333       31.9299792668        5.8493885395
  C        37.5719828820       30.8408344968        5.1402806905
  C        36.6105530058       31.1452151095        4.1645146005
  C        35.9924344823       30.1253155243        3.4465632589
  C        36.3210624319       28.7761219701        3.6829167841
  C        37.2527964007       28.4791223543        4.6952864878
  C        37.8748626135       29.4977566383        5.4122668149
  C        35.7180301777       27.6851779939        2.8852537916
  C        35.7471274553       27.7021925582        1.4639031577
  C        36.4524042639       28.7053294330        0.7271129243
  C        25.6820315410        8.6317913628        0.7493176005
  C        25.6902109035        8.6442795102        3.5614566534
  C        38.3288438165       31.9626671925       10.1561405068
  C        37.6064091632       30.8904749510       10.8981319385
  C        36.6771833976       31.2009538132       11.9027496939
  C        36.0656534912       30.1836292862       12.6325399700
  C        36.3692100891       28.8307073250       12.3809490292
  C        37.2763035383       28.5301932420       11.3464134175
  C        37.8899252186       29.5440254596       10.6178540930
  C        35.7596498402       27.7326600876       13.1649964112
  C        35.7684899144       27.7264718148       14.5869317406
  C        36.4623197275       28.7171207531       15.3504041807
  C        46.1357288218       26.6208893766       15.2815074631
  C        46.0879623955       26.5801935885       12.4736174906
  C        22.4594697405        3.2559363561       10.2579700372
  C        23.1500859592        4.3659433299       10.9818968415
  C        24.1487975244        4.0823768972       11.9269293768
  C        24.7731143777        5.1144665630       12.6232810372
  C        24.4192339088        6.4595777088       12.3963546393
  C        23.4435102845        6.7363524130       11.4200783893
  C        22.8141715313        5.7045047807       10.7247264507
  C        25.0478323206        7.5597005209       13.1692629644
  C        25.0375661499        7.5573008621       14.5919692696
  C        24.3419862094        6.5628460649       15.3497489935
  C        26.6272620151       17.8622882699        5.7795773906
  C        25.3208193360       17.9028450798        5.0520023423
  C        25.0561736979       18.8958739933        4.0957548689
  C        23.8422678496       18.9105193157        3.4111713622
  C        22.8547140333       17.9359715962        3.6614215499
  C        23.1152657455       16.9652304726        4.6470490729
  C        24.3315769347       16.9447091273        5.3283315446
  C        21.5801957723       17.9183708218        2.8989731235
  C        21.5799847129       17.8932563544        1.4765378911
  C        22.7851013361       17.7636040385        0.7162119571
  C        34.4346355266       17.1941890570        5.9159584858
  C        35.7273556899       17.1394633566        5.1718323880
  C        35.9350561124       16.1633460569        4.1847150919
  C        37.1155564211       16.1480569427        3.4471512822
  C        38.1213193653       17.1064282987        3.6785905768
  C        37.9168835215       18.0627006284        4.6913093619
  C        36.7331597348       18.0841494126        5.4251911525
  C        39.3763916026       17.1109887391        2.8934871357
  C        39.3733890369       17.1208009664        1.4718927055
  C        38.1669756492       17.2402148296        0.7125391362
  C        20.3332875161       17.9138231580        0.7681379169
  C        20.3554101102       17.9248291622        3.5816031388
  C        34.4740889414       17.2442185619       10.1813742936
  C        35.7779482597       17.1629706408       10.9014857813
  C        35.9915975003       16.1714289658       11.8705366719
  C        37.1774379157       16.1471017016       12.5988417704
  C        38.1771977020       17.1135947243       12.3769811439
  C        37.9704583733       18.0798157713       11.3750507213
  C        36.7825205603       18.1090817765       10.6495324652
  C        39.4227403588       17.1265314562       13.1745143483
  C        39.3971374843       17.1293582367       14.5954895103
  C        38.1780895139       17.2427663747       15.3357064449
  C        35.1370375033       26.6475516417       15.2904015919
  C        35.1694971655       26.6624925526       12.4813038359
  C        26.5732137187       17.8262431641       10.3262625989
  C        25.2589017675       17.8697974865       11.0331648178
  C        25.0002845209       18.8633514468       11.9894106107
  C        23.7818690729       18.8863620844       12.6622716708
  C        22.7938335547       17.9151029321       12.4038460407
  C        23.0478137435       16.9461644875       11.4162692519
  C        24.2664623787       16.9214204243       10.7410199592
  C        21.5302122623       17.8932328046       13.1764415260
  C        21.5541861988       17.8775845373       14.5979804868
  C        22.7721892495       17.7550823634       15.3397463617
  C        14.0470183558       17.8284843493       10.2892619027
  C        15.3515582463       17.8842138001       11.0148882887
  C        15.6086480849       18.8849112637       11.9650972092
  C        16.8177494038       18.9037435884       12.6580876145
  C        17.8044230143       17.9247279342       12.4232129208
  C        17.5520422195       16.9483726945       11.4408975790
  C        16.3424158758       16.9248418414       10.7496281066
  C        19.0737102707       17.9046899171       13.1922563085
  C        19.0727494945       17.8982091248       14.6148268857
  C        17.8658396481       17.8007559154       15.3763796234
  C        46.8065086150       17.2182727299       10.1588365662
  C        45.5182934462       17.1553176102       10.9060523268
  C        45.3148652559       16.1746505071       11.8891033284
  C        44.1347367273       16.1542924549       12.6271777175
  C        43.1293802134       17.1149907003       12.4038559980
  C        43.3303576774       18.0758077491       11.3945279805
  C        44.5110246600       18.0998289706       10.6571179837
  C        41.8768359397       17.1228319213       13.1921269116
  C        41.8809400967       17.1160890150       14.6138090804
  C        43.0890275333       17.2066894116       15.3743009108
  C        20.3196768074       17.9050360868       15.3230371033
  C        20.2979186043       17.8863356335       12.5099301798
  C        46.7850152901       17.2300608105        5.8903738228
  C        45.4808807280       17.1206340110        5.1774325264
  C        45.2625992352       16.1187998163        4.2196250236
  C        44.0742725283       16.0888147459        3.4941473933
  C        43.0751251784       17.0577384582        3.7095772747
  C        43.2832036449       18.0286561346        4.7069150929
  C        44.4727277177       18.0650124691        5.4274238088
  C        41.8300949674       17.0788766204        2.9110503787
  C        41.8571394364       17.0924763069        1.4901786758
  C        43.0777826496       17.1931849998        0.7509388892
  C        46.1534786704       26.6373068799        0.7262674280
  C        46.1625922208       26.6561905106        3.5359206804
  C        14.0460207041       17.8312476092        5.7084324273
  C        15.3676527824       17.9037125786        5.0182536552
  C        15.6432909851       18.9170312947        4.0879844620
  C        16.8729453242       18.9516017127        3.4339281046
  C        17.8550000229       17.9717764450        3.6837560559
  C        17.5863174219       16.9877644577        4.6525552870
  C        16.3587918906       16.9526574784        5.3101457371
  C        19.1225598004       17.9430609078        2.9148723316
  C        19.0983146486       17.9169095654        1.4932900488
  C        17.8783040496       17.8091846889        0.7526239415
  C        28.8095242643       14.0921154235       10.3915334429
  C        28.1950709378       12.9181905186       11.0767681532
  C        28.9138903705       12.1782636530       12.0268923529
  C        28.3114503721       11.1039532920       12.6764743608
  C        26.9759054179       10.7473512227       12.4011786849
  C        26.2788693468       11.4676173759       11.4146639374
  C        26.8794372806       12.5413096409       10.7624972594
  C        26.3026569946        9.6707954387       13.1630389241
  C        26.2875755226        9.7008546331       14.5838972874
  C        26.7953427572       10.8134156834       15.3272132126
  C        32.1795446710       21.2422865302       10.1430956873
  C        32.7729264599       22.4108300381       10.8593283882
  C        32.0221898115       23.0893445943       11.8316778978
  C        32.5909922210       24.1291583978       12.5607685542
  C        33.9261704425       24.5178145985       12.3384842962
  C        34.6592082364       23.8582428456       11.3340336610
  C        34.0925878908       22.8132404232       10.6064699569
  C        34.5536503639       25.5930394927       13.1401479872
  C        34.5444773181       25.5646238850       14.5618206919
  C        34.0337071462       24.4501625399       15.2995829683
  C        25.6756225672        8.6254682374       15.3045820583
  C        25.6658578201        8.6191763151       12.4913215207
  C        32.1039122784       21.2270656928        5.8855532981
  C        32.6951330528       22.3783029333        5.1401806171
  C        31.9575772223       23.0392013214        4.1457392662
  C        32.5363081962       24.0690371888        3.4073582306
  C        33.8661955303       24.4682099372        3.6457004168
  C        34.5864333379       23.8203920103        4.6675527270
  C        34.0124935015       22.7849865402        5.4010198908
  C        34.5043186044       25.5507142829        2.8612674810
  C        34.5178689679       25.5437602936        1.4393100157
  C        34.0198192071       24.4409961138        0.6764031131
  C        40.6208042829       17.0945055938        0.7649334850
  C        40.5986622170       17.1068434816        3.5747121860
  C        28.7480700396       14.0747630285        5.8153166599
  C        28.1310666723       12.9366168146        5.0680271255
  C        28.8628142433       12.2382478612        4.0955424732
  C        28.2782095703       11.1826665038        3.3993123074
  C        26.9454522133       10.7984974717        3.6503619448
  C        26.2289866337       11.4877367396        4.6467120735
  C        26.8120242617       12.5437908100        5.3446161103
  C        26.3015343320        9.7061880663        2.8817510954
  C        26.2899689481        9.7183257704        1.4601303024
  C        26.7955204557       10.8217748119        0.7030432527
  C        18.1355355256        3.1810313847       10.3172432452
  C        17.4063094696        4.2783119427       11.0158809507
  C        16.3905317625        4.0000230240       11.9433558188
  C        15.7429336563        5.0400581069       12.6069011765
  C        16.0948845678        6.3837557308       12.3671346824
  C        17.0843051717        6.6532052720       11.4033900993
  C        17.7332670389        5.6158117979       10.7383008001
  C        15.4706261227        7.4914893534       13.1301714713
  C        15.4859657366        7.4908510995       14.5518842187
  C        16.1874696058        6.4971937864       15.3050568174
  C        42.9459650917       31.8595341899       10.0728554830
  C        43.6463403742       30.7718944543       10.8168212186
  C        44.5918546513       31.0932242175       11.8029070829
  C        45.1976029912       30.0876831500       12.5505371680
  C        44.8711722204       28.7346161810       12.3357037340
  C        43.9453266594       28.4202717951       11.3225124824
  C        43.3364690225       29.4254099678       10.5745064087
  C        45.4888393267       27.6553618938       13.1388894617
  C        45.4929178397       27.6809469844       14.5605830758
  C        44.8058764716       28.6890183131       15.3072089734
  C        14.8569315699        8.5633001014       15.2642537909
  C        14.8753666054        8.5632723919       12.4515712438
  C        42.9464910700       31.9616087204        5.8089921864
  C        43.6918092325       30.8855176935        5.0955617628
  C        44.6563124994       31.1914481103        4.1231715548
  C        45.2778991303       30.1718714107        3.4054867526
  C        44.9541580083       28.8215388897        3.6431092555
  C        44.0207227170       28.5238503181        4.6539282663
  C        43.3924060612       29.5406055326        5.3660741221
  C        45.5632210387       27.7241467272        2.8578653061
  C        45.5334885865       27.7174493280        1.4365639521
  C        44.8271493677       28.7076617418        0.6836016715
  C        35.1248559637       26.6360835520        0.7354313448
  C        35.1154850882       26.6083860837        3.5452584234
  C        18.1485781492        3.2469931917        5.7065600170
  C        17.4299918680        4.3438493931        4.9973200235
  C        16.4148651023        4.0526131456        4.0736544005
  C        15.7666172936        5.0832860475        3.3982646060
  C        16.1211906615        6.4285168585        3.6211543786
  C        17.1125170704        6.7118421532        4.5784810474
  C        17.7601441731        5.6829019261        5.2582352196
  C        15.4907842909        7.5242359387        2.8486883902
  C        15.4968629549        7.5076989182        1.4275641861
  C        16.1936509336        6.5060102187        0.6808707451
  H        10.6724872338       12.4658047552        3.9045510830
  H        11.6948102312       10.5510396747        2.6626508808
  H        15.3917645806       11.1687473301        4.7722726288
  H        14.3512272040       13.0715433020        6.0174571455
  H        13.3764576329       11.6313583020        1.2013361131
  H        50.3228942620       22.7484061763        3.9868427988
  H        49.3198066721       24.6228984174        2.6808396164
  H        45.6423887630       24.1614148138        4.8638721270
  H        46.6632507496       22.2904563757        6.1721162591
  H        47.6300012614       23.5759643288        1.2462121804
  H        14.8721293890        8.5883416850        4.6085675215
  H        50.2871932104       22.7026669767       12.0603155667
  H        49.2692446895       24.5755444278       13.3603636314
  H        45.6106373718       24.1093100034       11.1459837956
  H        46.6527354047       22.2540045646        9.8317006492
  H        47.6079411312       23.5519083675       14.7968736057
  H        40.6614616277       17.1158408462       11.4234999214
  H        48.6872256066       14.0948991613        7.8000802317
  H        10.6814612052       12.4664471610       12.0931143990
  H        11.6898854680       10.5245854560       13.2968562962
  H        15.3940004900       11.1594823207       11.2059170006
  H        14.3653494799       13.0878614253        9.9906293828
  H        13.3762179970       11.6223618730       14.7531047705
  H        47.9302466794       14.2183749388        9.7106509050
  H        47.7801152236       14.3739786126        6.4954305099
  H        49.0840848634       18.5525013342       10.8674289081
  H        10.4161285108       14.1343212263        7.9986323512
  H        24.4816194026        3.0393912308        3.9091577384
  H        25.6144958538        4.9040077143        2.6853600421
  H        23.2398974228        7.7599865798        4.8541755983
  H        22.1248535245        5.8857515352        6.0788448262
  H        23.7922839961        5.8089786585        1.2682300502
  H        36.3728395959       32.1885128032        3.9707906323
  H        35.2465038968       30.3644896720        2.6918092072
  H        37.5138460395       27.4399629682        4.8845959951
  H        38.6198817165       29.2767050936        6.1728870456
  H        37.0177224363       29.4546952840        1.2734452963
  H        25.7281719320        8.6277492004        4.6492138221
  H        36.4551398407       32.2455469394       12.1089042021
  H        35.3394204493       30.4295565323       13.4041100646
  H        37.5222918108       27.4895427535       11.1457829443
  H        38.6126539739       29.3173269411        9.8378542436
  H        37.0363321084       29.4751467097       14.8253059408
  H        46.1093994715       26.5876104450       11.3855841237
  H        44.6682467422       35.1162180782        7.8138951634
  H        24.4265669920        3.0446702707       12.0973040259
  H        25.5514046863        4.8878480314       13.3488720345
  H        23.1589651307        7.7703508380       11.2359933253
  H        22.0449336415        5.9150633164        9.9853394861
  H        23.7700390570        5.8069121185       14.8194291037
  H        44.9538503880       34.3904425205        9.6952204029
  H        44.9016823864       34.2068315075        6.4905550512
  H        40.6660088903       33.2090256400       10.8530210962
  H        23.1503249555        1.9580665132        8.0050800109
  H        25.8121435920       19.6541762809        3.9054115587
  H        23.6432442608       19.6869016117        2.6754782007
  H        22.3648398083       16.2039075040        4.8504054118
  H        24.5425497196       16.1822872519        6.0746249697
  H        23.7261103751       17.6404087213        1.2447147359
  H        35.1552349694       15.4268237432        4.0062921569
  H        37.2760770059       15.3836904723        2.6899030812
  H        38.6858990888       18.8104720924        4.8739655415
  H        36.5584899006       18.8364206157        6.1909827826
  H        37.2272359305       17.3616831144        1.2435079729
  H        20.3624997571       17.9677849549        4.6693690772
  H        35.2084170510       15.4385613259       12.0496325828
  H        37.3430986820       15.3758043747       13.3478466991
  H        38.7370968969       18.8317882266       11.2000247143
  H        36.5997548314       18.8724264614        9.8968869664
  H        37.2468878865       17.3654917259       14.7900389987
  H        35.1428902704       26.6883861870       11.3935949629
  H        28.5105670125       21.0772327634        7.9750815927
  H        25.7670770806       19.6085599893       12.1886312003
  H        23.5806840032       19.6613740435       13.3986864088
  H        22.2935872409       16.1891923450       11.2110684268
  H        24.4787340696       16.1616452216        9.9926444473
  H        23.7030948885       17.6247569765       14.7959626297
  H        29.0025544252       21.7215362527        9.7602847339
  H        29.1630246575       21.7418406729        6.6243851672
  H        32.0923738486       18.5646361236       10.9934167981
  H        27.4083965178       19.0765598416        8.0821198210
  H        14.8505260894       19.6438047824       12.1453583424
  H        17.0129895748       19.6862053230       13.3882860220
  H        18.3031448211       16.1845422477       11.2501444564
  H        16.1365087542       16.1575457836       10.0071090890
  H        16.9229665163       17.6871471757       14.8493067854
  H        46.0985021696       15.4421074936       12.0674134484
  H        43.9763980326       15.3859277609       13.3807057352
  H        42.5615591652       18.8253801719       11.2188261299
  H        44.6833444226       18.8553831069        9.8942016680
  H        44.0316077549       17.3201184041       14.8464261582
  H        20.2918686922       17.9210802177       11.4219288790
  H        46.0401210581       15.3786895079        4.0447366143
  H        43.9076932880       15.3119223966        2.7511264622
  H        42.5163003107       18.7808229139        4.8797214472
  H        44.6553093541       18.8338351296        6.1741711441
  H        44.0117581670       17.2949909404        1.2959314488
  H        46.1994441800       26.6827298668        4.6233673812
  H        52.7412111177       21.0626540188        8.1947077031
  H        14.8840773957       19.6715543195        3.8940514017
  H        17.0852977698       19.7404858217        2.7155409700
  H        18.3355860408       16.2248735023        4.8537891888
  H        16.1364490699       16.1797468764        6.0418264051
  H        16.9447651386       17.7020026077        1.2967587593
  H        52.3227254908       21.6733161999        6.2941251684
  H        52.0133185671       21.7020986555        9.4957049625
  H        49.0673895754       18.6076595193        5.2041129780
  H        13.2477167503       19.0161439167        7.9773319882
  H        29.9413397737       12.4608745412       12.2442884785
  H        28.8702297958       10.5292066203       13.4118712590
  H        25.2467922197       11.2020712543       11.1950764839
  H        26.3392457379       13.1194919128       10.0168944157
  H        27.1631892826       11.6803868310       14.7865769461
  H        30.9970827788       22.7742780070       12.0112296743
  H        32.0039896070       24.6550469386       13.3106009919
  H        35.6925775004       24.1494106644       11.1570402167
  H        34.6640446599       22.2778312380        9.8517029900
  H        33.6768564613       23.5826151553       14.7518723914
  H        25.6982229578        8.5967046420       11.4034419564
  H        30.9329605706       22.7249619340        3.9600339190
  H        31.9575537701       24.5837658438        2.6434220890
  H        35.6158144200       24.1175951445        4.8571584098
  H        34.5735734499       22.2628595859        6.1726252388
  H        33.6525662145       23.5660255545        1.2049991621
  H        40.5901805391       17.0719360505        4.6624651836
  H        32.5046975037       14.1543898455        8.2565633952
  H        29.8931436971       12.5316223155        3.9076306697
  H        28.8546264092       10.6359982973        2.6560852136
  H        25.1974901211       11.2048176563        4.8468311014
  H        26.2571855253       13.0892593535        6.1043837452
  H        27.1680379131       11.6939916280        1.2325680736
  H        33.3071923412       14.2377379982        6.4669675083
  H        33.4087599445       14.4104299064        9.5981893427
  H        32.1249121642       18.5144958120        5.1738832614
  H        30.2271658395       14.1955892761        8.0708286945
  H        16.1184434139        2.9635349098       12.1298198394
  H        14.9534381006        4.8207505597       13.3225443839
  H        17.3667711903        7.6860692165       11.2102449187
  H        18.5153373454        5.8183863388       10.0104735283
  H        16.7540613253        5.7398763025       14.7715506761
  H        44.8281914337       32.1402993598       11.9770500615
  H        45.9375165694       30.3414338339       13.3064334850
  H        43.6826469009       27.3782035705       11.1523911362
  H        42.5998694230       29.1900501961        9.8098396224
  H        44.2305002610       29.4367657994       14.7689043437
  H        14.8515688048        8.5464956190       11.3633426836
  H        44.8998771098       32.2341240924        3.9317259032
  H        46.0247966904       30.4131074648        2.6522404068
  H        43.7638283537       27.4841127307        4.8455356156
  H        42.6459799572       29.3177705496        6.1245771128
  H        44.2686258191       29.4705392903        1.2181824821
  H        35.0751827915       26.6191582985        4.6328233086
  H        36.6050636654       35.1340953392        8.1806662020
  H        16.1437990677        3.0130396313        3.9038627859
  H        14.9743216786        4.8564822018        2.6881339783
  H        17.3959417970        7.7473034670        4.7555165090
  H        18.5429565330        5.8932872620        5.9830867011
  H        16.7650508262        5.7557501548        1.2193116993
  H        36.2784006919       34.4826529892        6.2731545014
  H        36.3807721174       34.2092723877        9.4996998041
  H        40.5803290546       33.2025333752        5.1536482804
  H        17.4707498039        1.9473782482        7.9741260930
  H        29.0057474466       19.3231889701       12.4850415147
  H        29.0871782757       19.2244165805        3.5914798957
  H        31.4207726667       15.7419266658        3.5241882016
  H        31.1614039608       15.5375469879       12.4982931507
  H        27.7523190328       17.7591505420       14.5261476431
  H        29.0460722185       15.3807881417       14.6946694400
  H        31.1119883907       19.7828994612        1.4066266390
  H        32.5323633249       17.2054595508        1.3738491826
  H        27.0663385913       14.6872218996        1.4926958212
  H        18.8537710992        0.8691667087       12.3353195017
  H        40.5279108737       35.2288600608        3.9519761980
  H        42.3243130025       34.4187805729        3.5904896672
  H        22.0879160468        0.6921670394       12.3515202284
  H        11.5970005754       18.7131153594       12.3825153635
  H        52.2650353184       18.4313878068        3.6772093258
  H        49.2558647684       16.4769061400        3.5842601593
  H        10.1508665651       15.7982012102       12.2926560944
  H        50.8503082532       17.6922996731        3.9543020320
  H        10.0464321647       17.3944970626       12.0519820656
  H        20.2150833935        0.0023892736       12.0419627101
  H        39.1837526536       36.1244555860        3.6864100064
 Ni        30.7750729980       17.8172810759        2.8294691137
 Ni        30.7288636988       16.3873646300       -0.0003818153
 Ni        29.6407986732       18.5673034871       -0.2452417440
 Ni        30.0581278220       17.4464925636       13.3224522310
  O        10.6499271945       14.3650642193        5.4858255870
  O        12.6131801768       14.6575184349        6.5839032296
  O        49.1480132513       16.8459344169        7.9897276925
  O        50.3502960633       20.9358253095        5.6480765472
  O        48.3485511280       20.5933526602        6.6659081018
  O        11.0517638578       17.0539201174        6.5006676529
  O        50.3210505031       20.8816522462       10.4068322184
  O        48.3467499298       20.5867760691        9.3271203186
  O        49.5438578177       18.2484423478       10.0682096911
  O        12.3591164799       18.6246740886        7.9997506474
  O        48.6932725629       14.1485338257        6.7513116160
  O         8.2099846710       14.2102837357        9.3224424941
  O        10.7354501625       14.5067030924       10.6643334145
  O        12.5718803632       14.5828212698        9.3284668321
  O        22.8448920885        2.0444322891        5.4867028758
  O        21.6055335301        3.5925329037        6.5896760441
  O        42.0582429856       34.1374535010        7.9788825707
  O        37.9818015467       33.1383349105        5.5726375963
  O        39.2180947892       31.5762411953        6.6666008865
  O        20.3084890198        1.0396187099        6.5019623191
  O        38.0249779480       33.1864572125       10.4149212638
  O        39.2191278455       31.5838605451        9.3264447548
  O        40.6523129379       33.7694215345       10.0602095646
  O        18.2554172560        1.3761797022        7.9967842138
  O        44.6222052136       35.1005909596        6.7587097106
  O        24.2054008051        0.0000473379        9.3208018612
  O        22.7528917550        2.0581517775       10.5839104885
  O        21.6241688575        3.5957864452        9.3419352939
  O        27.5030696925       18.7550494369        5.4934709825
  O        26.7661647323       16.9374537451        6.6526765530
  O        30.6667316693       19.4029658378        8.0697600297
  O        33.5764773157       16.2780823323        5.6618774146
  O        34.2749033691       18.1658446085        6.7329116313
  O        29.5727408427       17.0673458414        6.5831433019
  O        33.6126924059       16.3293153667       10.4135956200
  O        34.3056301894       18.2457348599        9.4067358812
  O        31.6548301568       18.3134072671       10.1625856695
  O        30.3241974873       15.1617996960        8.0883540088
  O        28.5549654071       21.0328300936        6.9022284026
  O        28.5146495624       20.9555439002        9.4127647874
  O        27.4595425579       18.6782255648       10.6610625935
  O        26.6948558506       16.9295147540        9.4131866230
  O        13.1492447203       18.6928151337       10.5876569092
  O        13.9195356410       16.9162187262        9.4050798723
  O        50.5962523603       19.3502277750        8.0204015729
  O        47.6847340068       16.3264758444       10.4168869106
  O        46.9518518548       18.1756279088        9.3248014320
  O        11.0699705496       17.0155345599        9.4896454628
  O        47.6763411268       16.3354915830        5.6533361580
  O        46.9267904244       18.2357514165        6.6643307993
  O        49.5687334561       18.3177414270        5.9822427382
  O        10.3186978923       15.1001597250        7.9970280869
  O        52.6707949650       21.0278832839        9.2418276390
  O        12.1468700615       20.8911663947        6.6732241410
  O        13.1087748572       18.6134971080        5.3254651255
  O        13.9573118350       16.9870308786        6.6655134644
  O        29.9937884652       14.4428438175       10.7321050567
  O        28.0900478041       14.6542861934        9.4949370035
  O        32.1311897073       16.8578549211        8.0829330164
  O        30.9664233934       20.9536445223       10.4082638498
  O        32.9478805604       20.6015565623        9.3395797597
  O        29.5697564691       17.0764636398        9.5791377666
  O        30.8741049621       20.9476564937        5.6662035140
  O        32.8802415499       20.5850377880        6.6677512447
  O        31.6810615741       18.2580289762        5.9993505540
  O        28.2933747064       18.6770122699        8.0780266959
  O        32.4913076067       14.2153769366        9.3315347465
  O        32.4025195246       14.2182813529        6.8215544075
  O        29.9241393923       14.4405108643        5.4908260862
  O        28.0412784871       14.5902833543        6.7517089859
  O        17.8892041672        1.9666755507       10.6628048624
  O        18.9561862256        3.5271536027        9.4079187893
  O        39.1686823579       34.1388647741        7.9972005518
  O        43.2802260413       33.0589892038       10.3317135487
  O        42.0345399131       31.5064319909        9.2416625615
  O        20.3177822222        1.0368291666        9.4801303250
  O        43.2761104311       33.1826139476        5.5749042524
  O        42.0052899909       31.5840927729        6.5829745892
  O        40.5790521168       33.7750078552        5.9359179524
  O        22.3673460360        1.3846490373        7.9978502381
  O        36.6727609123       35.0998372178        9.2332743318
  O        16.4455315076        0.0643502990        6.6682946789
  O        17.9364576329        2.0433940538        5.3263630191
  O        18.9190314570        3.5931598074        6.6659053130
  O        29.8621792502       18.8987665443        4.0830469246
  O        29.8146337723       18.9804563143       12.0558721921
  O        31.1068444183       16.4687014645        4.0928927655
  O        31.2959204569       16.4080470073       12.0761856571
  O        31.7178930778       16.7100868914        1.5790882938
  O        27.7508659808       15.2397247468        1.0808025503
  O        29.9523358185       15.6724918885       14.4816663177
  O        30.4018740777       19.1192765857        1.4288944642
  O        28.4657420918       18.3901656768       14.3239674355
  O        39.4568006402       35.2437948287        4.0019356841
  O        19.1417083938        0.0047397753       11.9905316101
  O        41.9694855488       35.1723883735        4.0872042354
  O        21.6914195362       -0.0692162946       11.8959047416
  O        51.3652095866       18.6143248150        4.0054489088
  O        10.7512104500       18.7471970760       11.9049224224
  O        50.0802095747       16.4127848960        4.0916870611
  O         9.5248846018       16.4829864859       11.9912300545
 Zr         9.2971293097       16.0527881866        6.1824953538
 Zr        49.8368186601       16.0065623246        9.7463677828
 Zr        22.0733366161        0.0300293224        6.1889800024
 Zr        42.4609956151       35.1534615965        9.8008622313
 Zr        29.6116861996       19.0990477998        6.2934889197
 Zr        29.5839481838       19.1749308497        9.8917536844
 Zr        11.0383244430       19.0519261608        9.8277547867
 Zr        11.0441820638       19.1548099551        6.2509687705
 Zr        31.3498314076       16.1081142281        9.9056814200
 Zr        31.3817438109       16.0299976034        6.2934641221
 Zr        18.6011774163       -0.0011728822        9.7633759630
 Zr        18.5064408202       -0.0076494294        6.2137693572
 Zr        12.3024379569       16.3236835347        7.9902962292
 Zr        48.6167506228       18.8331545834        8.0101361165
 Zr        20.3151100912        2.4734047951        7.9903426015
 Zr        40.6435444376       32.6871084947        7.9782366962
 Zr        28.3470372049       16.3440764280        8.0859222720
 Zr        32.6304410858       18.8403509649        8.0579747804
  H        30.8447818920       17.9557858787       14.7510945369
  H        29.4395830782       17.1254008061        0.4424712636
  H        28.2858815025       15.5511185483        1.8318084535
