     573
 i =      183, E =     -4762.8445821964
  C        11.8586635146       14.0535603696        5.7415752300
  C        12.4561622460       12.8905946291        5.0232836819
  C        11.7045298492       12.1717846882        4.0814895071
  C        12.2809155211       11.1095951759        3.3891163656
  C        13.6214452832       10.7397076715        3.6169667835
  C        14.3545439026       11.4431614502        4.5905701553
  C        13.7816476754       12.5081208132        5.2820916379
  C        14.2610111359        9.6490570586        2.8435821945
  C        14.2564396161        9.6570212219        1.4218809244
  C        13.7433368688       10.7591697730        0.6679632297
  C        49.1267907919       21.2332002133        5.8797309238
  C        48.5500704207       22.4011426347        5.1526667388
  C        49.3001270940       23.0684784101        4.1716921942
  C        48.7332077425       24.1076205086        3.4384898706
  C        47.4026437612       24.5092450909        3.6670459483
  C        46.6716682646       23.8603543386        4.6805377553
  C        47.2341031284       22.8154474628        5.4099030650
  C        46.7724396744       25.5869788526        2.8697769748
  C        46.7615103056       25.5574223897        1.4480097040
  C        47.2614594390       24.4423451262        0.7045029013
  C        14.8603988867        8.5706804471        0.7086353321
  C        14.8917137033        8.5970689756        3.5202460096
  C        49.1131735214       21.2034318955       10.1453583323
  C        48.5278236758       22.3648025412       10.8724755828
  C        49.2670681313       23.0255479110       11.8653689799
  C        48.6907463670       24.0601108809       12.5968184854
  C        47.3603111602       24.4568613462       12.3586250592
  C        46.6398780736       23.8119227120       11.3351322485
  C        47.2134242650       22.7760042745       10.6033553983
  C        46.7218814524       25.5318447730       13.1496562061
  C        46.7337152554       25.5282547093       14.5713624228
  C        47.2491697593       24.4290498418       15.3277414738
  C        40.6199429158       17.0859018523       15.3094047983
  C        40.6298290459       17.1006798949       12.4996113441
  C        11.8829629285       14.0865890667       10.2855158825
  C        12.4723272565       12.9107991262       10.9897627419
  C        11.7148428710       12.1775636065       11.9158694015
  C        12.2814666686       11.0951064441       12.5842619343
  C        13.6202922979       10.7214104345       12.3524135333
  C        14.3582406239       11.4370244783       11.3916301356
  C        13.7927775044       12.5181943653       10.7189690076
  C        14.2539318380        9.6246666406       13.1228133016
  C        14.2526825435        9.6446678548       14.5446515160
  C        13.7428457707       10.7536473428       15.2917077400
  C        22.5114510132        3.2453372265        5.7524713051
  C        23.2236614630        4.3530043407        5.0525880468
  C        24.2191537430        4.0773103735        4.1035192234
  C        24.8421836812        5.1196965502        3.4215939997
  C        24.4857142480        6.4605911447        3.6681341796
  C        23.5188378582        6.7278076681        4.6545269526
  C        22.8912417716        5.6872898160        5.3347847894
  C        25.0855683303        7.5700406795        2.8910379790
  C        25.0530826514        7.5635647212        1.4693803160
  C        24.3520917506        6.5622273161        0.7248195743
  C        38.2982113587       31.9280090985        5.8517689269
  C        37.5567675466       30.8400757291        5.1499846747
  C        36.5920864553       31.1484676232        4.1782815518
  C        35.9609791212       30.1316170643        3.4670289338
  C        36.2791163090       28.7798516766        3.7039554200
  C        37.2133067976       28.4789166815        4.7132480096
  C        37.8484557803       29.4947787771        5.4240054711
  C        35.6674895983       27.6927698260        2.9049051880
  C        35.7066211071       27.7078854735        1.4832041145
  C        36.4214640098       28.7072414133        0.7502628199
  C        25.6706714518        8.6353190846        0.7474077321
  C        25.6827584316        8.6467183686        3.5592503925
  C        38.3304335840       31.9607306489       10.1603521521
  C        37.6136476044       30.8881876411       10.9098158142
  C        36.6823608112       31.1985978810       11.9129479615
  C        36.0719091367       30.1822169937       12.6457744639
  C        36.3774773896       28.8282702904       12.4002696271
  C        37.2898067238       28.5278478019       11.3698922133
  C        37.9020982204       29.5407733746       10.6380295064
  C        35.7611582233       27.7307182857       13.1821740590
  C        35.7544653020       27.7272951725       14.6047964765
  C        36.4429463465       28.7174778980       15.3736717545
  C        46.1357010539       26.6208825525       15.2815088586
  C        46.0877976813       26.5801361807       12.4736123453
  C        22.4591405932        3.2554369167       10.2572812342
  C        23.1494073930        4.3656195091       10.9806629009
  C        24.1493444029        4.0825980568       11.9244359831
  C        24.7730008621        5.1151683912       12.6204941524
  C        24.4166198343        6.4596541145       12.3944497146
  C        23.4398270557        6.7359396646       11.4192183951
  C        22.8113062763        5.7036667315       10.7240470088
  C        25.0428874135        7.5604745194       13.1675900768
  C        25.0317553078        7.5578809351       14.5901986849
  C        24.3398398591        6.5608212565       15.3479085059
  C        26.6167616972       17.8576264292        5.7820697213
  C        25.3120387397       17.9011003448        5.0560518012
  C        25.0490777750       18.8960157100        4.1009019358
  C        23.8366708980       18.9102343260        3.4141236718
  C        22.8495028421       17.9347445916        3.6620524329
  C        23.1082744567       16.9629773294        4.6472597819
  C        24.3232137167       16.9417220480        5.3301819561
  C        21.5762712622       17.9180039034        2.8981504492
  C        21.5777442189       17.8943442545        1.4757668039
  C        22.7833804228       17.7620827317        0.7167382064
  C        34.4358903041       17.1934056954        5.9171796208
  C        35.7288406488       17.1418089794        5.1729587392
  C        35.9372144132       16.1658716713        4.1856032599
  C        37.1174669157       16.1512200216        3.4476006163
  C        38.1230619877       17.1104739723        3.6772421683
  C        37.9180463365       18.0665567805        4.6902268918
  C        36.7346238322       18.0870597550        5.4251910797
  C        39.3765195617       17.1159796704        2.8883623407
  C        39.3686836996       17.1187787975        1.4663654979
  C        38.1596300714       17.2354057736        0.7108984200
  C        20.3315393322       17.9174230004        0.7666631110
  C        20.3514046677       17.9242298595        3.5802428665
  C        34.4384405932       17.2368367180       10.1894624382
  C        35.7389576174       17.1361301132       10.9124254015
  C        35.9442844455       16.1551286930       11.8940419551
  C        37.1353615252       16.1232143114       12.6154651270
  C        38.1496044052       17.0711632401       12.3756817023
  C        37.9501502322       18.0249015359       11.3599455631
  C        36.7588342981       18.0618142891       10.6416218067
  C        39.3998354453       17.0865064515       13.1677620475
  C        39.3805714623       17.1042214389       14.5891943750
  C        38.1651672960       17.2269716636       15.3340695700
  C        35.1127552438       26.6516860040       15.3049759880
  C        35.1761408948       26.6590673407       12.4953257918
  C        26.5741838243       17.8263457075       10.3263478875
  C        25.2606580639       17.8690341416       11.0343921166
  C        25.0006194632       18.8647306304       11.9880360998
  C        23.7823063622       18.8879696404       12.6610248552
  C        22.7952673346       17.9151784350       12.4046461118
  C        23.0506235807       16.9437960266       11.4198458385
  C        24.2694364823       16.9185264002       10.7449470899
  C        21.5309784203       17.8948925921       13.1762392381
  C        21.5540686809       17.8800817523       14.5977598915
  C        22.7713270622       17.7547034005       15.3402218690
  C        14.0471342137       17.8289758691       10.2887071056
  C        15.3522099133       17.8859839735       11.0133134303
  C        15.6097843842       18.8884540114       11.9614971827
  C        16.8192009381       18.9084940624       12.6538909408
  C        17.8055569721       17.9288237319       12.4204896789
  C        17.5528919559       16.9509550682       11.4397649853
  C        16.3429886138       16.9263056977       10.7490083045
  C        19.0745356776       17.9091235549       13.1900012788
  C        19.0725560424       17.9037243361       14.6125662886
  C        17.8649501270       17.8080265348       15.3732816133
  C        46.8022604527       17.2161367178       10.1568902771
  C        45.5086474212       17.1457178005       10.8972072038
  C        45.3033557068       16.1614296855       11.8766351835
  C        44.1192795047       16.1333151512       12.6088758955
  C        43.1092602498       17.0892931792       12.3846194556
  C        43.3111076230       18.0522946348       11.3772397850
  C        44.4961287765       18.0843176795       10.6457155513
  C        41.8560244857       17.0933109942       13.1749029281
  C        41.8649856520       17.0974035672       14.5971978264
  C        43.0754984685       17.1963471283       15.3529655595
  C        20.3189592904       17.9093447217       15.3216671071
  C        20.2992785047       17.8888541541       12.5086664873
  C        46.7851680431       17.2325352963        5.8862852468
  C        45.4839092842       17.1286592982        5.1658671479
  C        45.2662573660       16.1292550001        4.2051285044
  C        44.0790288083       16.1012102334        3.4773211983
  C        43.0791775861       17.0698559031        3.6921189967
  C        43.2882351756       18.0406008520        4.6897059986
  C        44.4763385034       18.0746444418        5.4131230528
  C        41.8312890411       17.0879272501        2.8967446726
  C        41.8525473832       17.0934412635        1.4753132671
  C        43.0696981070       17.1915878087        0.7300080640
  C        46.1535108618       26.6373199230        0.7262702021
  C        46.1624274300       26.6560608820        3.5359216020
  C        14.0452433857       17.8309604974        5.7082976139
  C        15.3660306774       17.9031325819        5.0169707601
  C        15.6414360129       18.9182698184        4.0886912820
  C        16.8705472726       18.9533543253        3.4338039821
  C        17.8518291690       17.9722459481        3.6811807956
  C        17.5831243055       16.9858498099        4.6475162742
  C        16.3562097568       16.9503745298        5.3060457316
  C        19.1193181043       17.9446690368        2.9125913174
  C        19.0961093845       17.9210559001        1.4910196991
  C        17.8764173946       17.8157516785        0.7495558113
  C        28.8068853076       14.0904020651       10.3917530106
  C        28.1895755917       12.9198766364       11.0786137317
  C        28.9040785707       12.1832917440       12.0347033591
  C        28.2987961430       11.1107239975       12.6843144204
  C        26.9652821984       10.7517760956       12.4019783951
  C        26.2727067896       11.4688556236       11.4101295004
  C        26.8755696502       12.5416601870       10.7589091873
  C        26.2907503630        9.6751292161       13.1619856198
  C        26.2713233156        9.7070913739       14.5824713276
  C        26.7667974626       10.8254672511       15.3248738015
  C        32.1805574165       21.2398404763       10.1458025933
  C        32.7739888195       22.4071457308       10.8644236572
  C        32.0212423043       23.0895464721       11.8327580525
  C        32.5886635702       24.1301141077       12.5619665316
  C        33.9256580234       24.5167455226       12.3458217269
  C        34.6611219180       23.8532484211       11.3453219163
  C        34.0956258334       22.8077234294       10.6171009416
  C        34.5503702900       25.5924541083       13.1504563947
  C        34.5257270695       25.5679309816       14.5726038930
  C        34.0056658230       24.4563822590       15.3084341817
  C        25.6645850887        8.6288234486       15.3029161578
  C        25.6589816985        8.6210404071       12.4897225734
  C        32.0801710657       21.2023903809        5.8793964182
  C        32.6461401614       22.3685809323        5.1390462673
  C        31.9085016993       23.0189058934        4.1378537197
  C        32.4786136206       24.0591413827        3.4058791843
  C        33.8002594775       24.4795660101        3.6555693575
  C        34.5183427543       23.8438189524        4.6870226452
  C        33.9536724053       22.7998426084        5.4142001922
  C        34.4399454431       25.5642985554        2.8736174393
  C        34.4674664957       25.5544050503        1.4511246420
  C        33.9764340263       24.4504267798        0.6851984913
  C        40.6133830165       17.0887651578        0.7544893264
  C        40.6017897554       17.1170956522        3.5647866406
  C        28.7423851847       14.0734081467        5.8142796281
  C        28.1224489683       12.9390237139        5.0653272946
  C        28.8466027567       12.2529673883        4.0781695344
  C        28.2597634881       11.1991847134        3.3812215738
  C        26.9326462821       10.8040725824        3.6463732603
  C        26.2242880090       11.4816461812        4.6563832154
  C        26.8091016096       12.5363464422        5.3546110176
  C        26.2881697447        9.7117504743        2.8790343760
  C        26.2723935376        9.7254672171        1.4575447356
  C        26.7654657721       10.8342441837        0.7004205710
  C        18.1353779454        3.1808540844       10.3171531640
  C        17.4061113343        4.2781301056       11.0158251437
  C        16.3904206462        3.9998191515       11.9433830807
  C        15.7427172835        5.0398428212       12.6068502960
  C        16.0946291805        6.3835565276       12.3671257603
  C        17.0839858365        6.6530218342       11.4033185195
  C        17.7330427104        5.6156428501       10.7382883484
  C        15.4703323420        7.4913026808       13.1301379750
  C        15.4856255356        7.4906450142       14.5518498452
  C        16.1871723094        6.4970391869       15.3050402071
  C        42.9457829148       31.8594628120       10.0728590375
  C        43.6461177216       30.7718089807       10.8168332885
  C        44.5917919993       31.0931315148       11.8027746636
  C        45.1975126329       30.0875907364       12.5504285102
  C        44.8709486844       28.7345336040       12.3357180644
  C        43.9449470929       28.4201902979       11.3226650877
  C        43.3361164173       29.4253271918       10.5746226657
  C        45.4886178702       27.6552670079       13.1388996610
  C        45.4929326937       27.6809773397       14.5605943207
  C        44.8058759600       28.6890337207       15.3072315658
  C        14.8566917708        8.5631636655       15.2642029190
  C        14.8750578840        8.5630731224       12.4515342520
  C        42.9464345572       31.9615645705        5.8089852268
  C        43.6916709702       30.8854619921        5.0955132293
  C        44.6564146302       31.1913714203        4.1233516698
  C        45.2779584780       30.1717932558        3.4056373943
  C        44.9540872448       28.8214700174        3.6431500550
  C        44.0204186838       28.5237985115        4.6537561472
  C        43.3921273414       29.5405574331        5.3659262584
  C        45.5631652127       27.7240903452        2.8578822977
  C        45.5335166067       27.7174542086        1.4365775998
  C        44.8271938202       28.7076865156        0.6836255844
  C        35.0855734967       26.6434714655        0.7505380247
  C        35.0516399817       26.6207532859        3.5609196889
  C        18.1484808747        3.2469020706        5.7065739718
  C        17.4298236615        4.3437610071        4.9973526285
  C        16.4146880332        4.0525285084        4.0736918148
  C        15.7664022461        5.0831936934        3.3983199797
  C        16.1210439996        6.4284233073        3.6211130972
  C        17.1123309081        6.7117632510        4.5784795708
  C        17.7599739267        5.6828214570        5.2582293607
  C        15.4905904292        7.5241519773        2.8486730540
  C        15.4965859878        7.5075677697        1.4275382963
  C        16.1933566553        6.5058608817        0.6808533715
  H        10.6724278472       12.4659756042        3.9044021518
  H        11.6946618152       10.5511834537        2.6624938871
  H        15.3915428590       11.1684972471        4.7723728220
  H        14.3510534826       13.0712780592        6.0176200053
  H        13.3763249103       11.6312971564        1.2012708625
  H        50.3228447912       22.7484598275        3.9869744030
  H        49.3197035664       24.6228789911        2.6809160591
  H        45.6421442033       24.1610629435        4.8636427427
  H        46.6630396530       22.2902101125        6.1719624222
  H        47.6299511186       23.5759354326        1.2461669211
  H        14.8719485714        8.5882742186        4.6085509644
  H        50.2871197172       22.7027128695       12.0602701175
  H        49.2691453995       24.5755725490       13.3603117630
  H        45.6104399069       24.1090871548       11.1461269165
  H        46.6525296210       22.2538091284        9.8318667435
  H        47.6079075317       23.5519126066       14.7968474412
  H        40.6331505358       17.0653735343       11.4118232205
  H        48.6870739684       14.0950159237        7.8000025711
  H        10.6813521213       12.4665798730       12.0932589427
  H        11.6896864957       10.5246518211       13.2969210458
  H        15.3936949023       11.1592089876       11.2057229660
  H        14.3651125548       13.0876427831        9.9904997316
  H        13.3760605328       11.6222692252       14.7530539852
  H        47.9300982842       14.2186088029        9.7107652478
  H        47.7799438740       14.3736652135        6.4952991885
  H        49.0827332028       18.5519659750       10.8670372179
  H        10.4159066609       14.1343908779        7.9988023076
  H        24.4824202212        3.0397462467        3.9101032761
  H        25.6138993544        4.9048568616        2.6855560973
  H        23.2355254018        7.7596129409        4.8518586304
  H        22.1223755740        5.8848992938        6.0777098549
  H        23.7933100309        5.8045585642        1.2664008485
  H        36.3617525065       32.1929539307        3.9820781443
  H        35.2138446345       30.3757833183        2.7150206232
  H        37.4670639224       27.4383049682        4.9046862997
  H        38.5951712763       29.2685528055        6.1815571811
  H        36.9846392624       29.4557694063        1.2998929315
  H        25.7234026992        8.6289856771        4.6468900199
  H        36.4561767755       32.2431062616       12.1151732607
  H        35.3432072694       30.4303092983       13.4143433376
  H        37.5399189292       27.4873822250       11.1732456854
  H        38.6269635838       29.3118622811        9.8605778527
  H        37.0235816552       29.4734876817       14.8528576091
  H        46.1090516721       26.5874647336       11.3855732356
  H        44.6681847308       35.1161522201        7.8139438295
  H        24.4284179011        3.0451045516       12.0939239913
  H        25.5522766491        4.8895212688       13.3453142239
  H        23.1536349845        7.7696837764       11.2363420657
  H        22.0410733417        5.9132038965        9.9854249907
  H        23.7708399502        5.8026813278       14.8175950652
  H        44.9536530970       34.3902972417        9.6951416804
  H        44.9016061293       34.2067786617        6.4905655378
  H        40.6660283171       33.2088563680       10.8530691650
  H        23.1502109586        1.9578461288        8.0050379355
  H        25.8044199708       19.6558216927        3.9134626054
  H        23.6381335802       19.6869171424        2.6786703353
  H        22.3578257592       16.2010015653        4.8478387898
  H        24.5336596051       16.1776978030        6.0749561847
  H        23.7235904492       17.6327398723        1.2453083546
  H        35.1572568383       15.4298127167        4.0059593207
  H        37.2771068897       15.3869989656        2.6900502370
  H        38.6858301683       18.8157992212        4.8720665156
  H        36.5605639075       18.8401070000        6.1903468655
  H        37.2219769025       17.3643911600        1.2438965266
  H        20.3576933370       17.9655420811        4.6680697377
  H        35.1528362296       15.4353232620       12.0899807783
  H        37.2925799905       15.3596083049       13.3741120701
  H        38.7260313752       18.7633249479       11.1688129669
  H        36.5849784578       18.8168423972        9.8788093333
  H        37.2314317834       17.3491432229       14.7927145352
  H        35.1608609895       26.6821712850       11.4073111431
  H        28.5092188333       21.0840446082        7.9695283380
  H        25.7661945950       19.6119685647       12.1841440718
  H        23.5799778045       19.6643975835       13.3956281415
  H        22.2972976800       16.1854191510       11.2165931339
  H        24.4826391292       16.1567704302        9.9988853629
  H        23.7022304376       17.6204520893       14.7974164831
  H        29.0090619589       21.7200617312        9.7588578580
  H        29.1438503131       21.7504795246        6.6124392950
  H        32.0759496051       18.5608921489       10.9972253718
  H        27.4081771675       19.0809937209        8.0862641350
  H        14.8516526861       19.6475697739       12.1407876512
  H        17.0147435819       19.6922030869       13.3826626777
  H        18.3037834237       16.1866289775       11.2501973238
  H        16.1366746194       16.1577568482       10.0078970252
  H        16.9222791865       17.6958595694       14.8455646685
  H        46.0892580193       15.4320403003       12.0580882892
  H        43.9625033751       15.3626913528       13.3604840853
  H        42.5398132603       18.7986394329       11.1985194426
  H        44.6670962903       18.8428234398        9.8853243042
  H        44.0159937249       17.3080278173       14.8210559483
  H        20.2940796355       17.9223902603       11.4206315433
  H        46.0428293003       15.3879619499        4.0308535686
  H        43.9133455883       15.3244554717        2.7339450138
  H        42.5221473469       18.7936971081        4.8621709222
  H        44.6576773967       18.8426647607        6.1610328957
  H        44.0058702570       17.2985483633        1.2703087308
  H        46.1991602752       26.6825346883        4.6233729043
  H        52.7411416232       21.0626376885        8.1946846283
  H        14.8824841650       19.6736561134        3.8971558590
  H        17.0832153977       19.7437033233        2.7171179421
  H        18.3319571349       16.2218374926        4.8461063118
  H        16.1335291760       16.1760271166        6.0360955702
  H        16.9423656370       17.7095563802        1.2930079670
  H        52.3224202444       21.6732242875        6.2942553507
  H        52.0132251269       21.7020660462        9.4956835699
  H        49.0674772987       18.6079365609        5.2041124614
  H        13.2474738414       19.0162798942        7.9771890463
  H        29.9306946777       12.4664057655       12.2555586361
  H        28.8535807435       10.5385646980       13.4247159548
  H        25.2421721158       11.2015305923       11.1855707268
  H        26.3387229798       13.1176946971       10.0092900158
  H        27.1231887568       11.6974032091       14.7846469860
  H        30.9947608479       22.7779684140       12.0098311667
  H        31.9988576002       24.6574558047       13.3085083274
  H        35.6959722019       24.1413275870       11.1718380993
  H        34.6701581384       22.2708394766        9.8657093708
  H        33.6546519054       23.5861146571       14.7612338560
  H        25.6935498775        8.5974345268       11.4019483712
  H        30.8918966895       22.6878982520        3.9376893668
  H        31.8991249747       24.5623964780        2.6349595121
  H        35.5411795718       24.1559018719        4.8875850633
  H        34.5160478803       22.2878560711        6.1913859711
  H        33.6032157896       23.5751634488        1.2094316054
  H        40.5974931078       17.0868742800        4.6527136455
  H        32.5046969241       14.1520181266        8.2489842027
  H        29.8729096049       12.5537708466        3.8800384447
  H        28.8304513034       10.6615314031        2.6271124937
  H        25.1969782373       11.1911728013        4.8668220554
  H        26.2599006823       13.0729089168        6.1246977581
  H        27.1229890195       11.7127158281        1.2292989457
  H        33.3059568919       14.2381560517        6.4642988127
  H        33.4066411716       14.4013625288        9.5988400077
  H        32.1240633851       18.5003368534        5.1648232240
  H        30.2121918280       14.1883557463        8.0756631571
  H        16.1183388670        2.9633232840       12.1298143450
  H        14.9532667504        4.8204806507       13.3225159723
  H        17.3664230541        7.6858876391       11.2101672643
  H        18.5150171496        5.8182456634       10.0103628091
  H        16.7537051433        5.7396752673       14.7715505801
  H        44.8281889732       32.1402028066       11.9768570133
  H        45.9374974447       30.3413290866       13.3062606613
  H        43.6820985144       27.3781371153       11.1526851615
  H        42.5993840047       29.1899604939        9.8100761757
  H        44.2304639420       29.4367666796       14.7689406970
  H        14.8512668349        8.5462765249       11.3633155177
  H        44.9000421512       32.2340444372        3.9319810034
  H        46.0249625451       30.4130183805        2.6524977733
  H        43.7633019408       27.4840827461        4.8451934944
  H        42.6454662277       29.3177118003        6.1241995355
  H        44.2686554660       29.4705481913        1.2182153658
  H        35.0040282568       26.6328109219        4.6482170026
  H        36.6051285429       35.1339060104        8.1807497006
  H        16.1436117624        3.0129576739        3.9039098634
  H        14.9741332737        4.8563709421        2.6881642984
  H        17.3958053917        7.7472282077        4.7554322415
  H        18.5427747346        5.8932305115        5.9830835553
  H        16.7647493562        5.7556031333        1.2193091155
  H        36.2785831308       34.4822038953        6.2733168897
  H        36.3808470523       34.2090211513        9.4997343135
  H        40.5790082665       33.2014555866        5.1541518233
  H        17.4707749978        1.9467914863        7.9740614032
  H        29.0624521966       19.3738287833       12.5104095939
  H        28.8104857039       18.5844737223        3.8778727219
  H        31.3908040831       15.6794623407        3.5031393090
  H        31.1250146938       15.5572297904       12.5102353680
  H        27.8752636325       17.7211562901       14.4813324921
  H        29.0954315805       15.3938370068       14.4394847113
  H        29.9456480235       19.8258604945        1.9669885413
  H        32.4649072040       17.1922732581        1.3346831945
  H        27.4773126286       14.5939093816        1.7526976692
  H        18.8533769086        0.8691206296       12.3350682055
  H        40.5278529509       35.2289674560        3.9521469189
  H        42.3236802079       34.4184921652        3.5908467291
  H        22.0878339957        0.6921192197       12.3514061714
  H        11.5970794772       18.7126035672       12.3823250885
  H        52.2648956199       18.4311499587        3.6774463570
  H        49.2548261123       16.4771866347        3.5847839075
  H        10.1496416234       15.7982802442       12.2930306628
  H        50.8500276154       17.6924648084        3.9542459867
  H        10.0457583859       17.3945579701       12.0519599120
  H        20.2146961879        0.0023210032       12.0420256279
  H        39.1835480721       36.1244000406        3.6866076197
 Ni        30.7357111720       17.7898267409        2.8286817790
 Ni        30.7389790271       16.4191370509       -0.1633589501
 Ni        29.6698522197       18.6533543685       -0.2421493312
 Ni        29.8895683730       17.3540703475       13.1551319344
  O        10.6498854498       14.3651334103        5.4858307896
  O        12.6131522376       14.6575259236        6.5838935709
  O        49.1477468421       16.8459570417        7.9897806102
  O        50.3502595714       20.9358281385        5.6481353998
  O        48.3485527593       20.5932562932        6.6659629398
  O        11.0515402018       17.0539085552        6.5006887313
  O        50.3210049624       20.8816559025       10.4068298698
  O        48.3467323312       20.5867066404        9.3271278691
  O        49.5435839021       18.2484281485       10.0682385623
  O        12.3589703597       18.6246231074        7.9997567789
  O        48.6931920481       14.1486264140        6.7512810778
  O         8.2098651010       14.2104323590        9.3225601396
  O        10.7353656643       14.5067834921       10.6643461534
  O        12.5718095074       14.5828433345        9.3284906132
  O        22.8449032439        2.0443188746        5.4867365363
  O        21.6053633404        3.5923552236        6.5897133978
  O        42.0579702234       34.1371300562        7.9788292397
  O        37.9813631591       33.1368539268        5.5725673412
  O        39.2172767121       31.5751236537        6.6658377490
  O        20.3083451425        1.0392886061        6.5018764713
  O        38.0244924440       33.1850443524       10.4156466875
  O        39.2184462178       31.5830277829        9.3273875985
  O        40.6521845547       33.7691528021       10.0601705069
  O        18.2555529928        1.3757415293        7.9967787681
  O        44.6221940825       35.1005601581        6.7587289168
  O        24.2053568758        0.0000222281        9.3207984403
  O        22.7528208463        2.0579279779       10.5837550304
  O        21.6238161725        3.5954180671        9.3413890328
  O        27.4978301278       18.7497590109        5.4910758082
  O        26.7612279024       16.9377708273        6.6548495231
  O        30.6662488226       19.4054056018        8.0695412169
  O        33.5794434788       16.2767230680        5.6647125578
  O        34.2733208156       18.1651979550        6.7361768197
  O        29.5699980517       17.0637089795        6.5829477220
  O        33.5518973423       16.3392271598       10.4165176187
  O        34.2999044089       18.2376249069        9.4072956024
  O        31.6496776586       18.3139518143       10.1592137748
  O        30.3180224257       15.1537772366        8.0860999280
  O        28.5521054739       21.0333449206        6.9019035817
  O        28.5149645238       20.9564301974        9.4143820655
  O        27.4605966848       18.6788439295       10.6597482916
  O        26.6950447657       16.9295576213        9.4127631621
  O        13.1491614209       18.6928911815       10.5875606943
  O        13.9195171121       16.9162457414        9.4050807180
  O        50.5959142091       19.3501583151        8.0205846712
  O        47.6827520396       16.3270435171       10.4172431687
  O        46.9503691439       18.1756043748        9.3255214596
  O        11.0696406267       17.0156080784        9.4896650744
  O        47.6756200483       16.3359117286        5.6527894657
  O        46.9260309729       18.2358550033        6.6637400247
  O        49.5684977699       18.3177270155        5.9823521307
  O        10.3185903219       15.1002445106        7.9971046126
  O        52.6707550673       21.0278877355        9.2418286633
  O        12.1468144505       20.8911530115        6.6732422571
  O        13.1083535034       18.6136118098        5.3255575124
  O        13.9570519823       16.9869460655        6.6655177026
  O        29.9923321300       14.4395175801       10.7293392260
  O        28.0890863052       14.6541590842        9.4946952242
  O        32.0766140471       16.8636390930        8.0779988675
  O        30.9651099821       20.9516864015       10.4093370321
  O        32.9465863856       20.6007165699        9.3388586499
  O        29.5636393306       17.0775423907        9.5773187674
  O        30.8537914652       20.8865882381        5.6584587195
  O        32.8716020555       20.5853068333        6.6658566338
  O        31.6809222461       18.2530760956        5.9942651289
  O        28.2915635842       18.6778302328        8.0763245531
  O        32.4895221987       14.2138656355        9.3279433603
  O        32.4024235253       14.2185413579        6.8220692909
  O        29.9191339827       14.4368836770        5.4904456975
  O        28.0385793320       14.5905393581        6.7518738076
  O        17.8891766645        1.9665317322       10.6628184725
  O        18.9561710977        3.5270561834        9.4079541693
  O        39.1686119256       34.1386100709        7.9971246949
  O        43.2801799483       33.0589180727       10.3316654257
  O        42.0344101582       31.5064544854        9.2415885082
  O        20.3175079162        1.0365384120        9.4802397760
  O        43.2760730492       33.1825959356        5.5749134265
  O        42.0052386707       31.5840976747        6.5829849635
  O        40.5789360976       33.7747660807        5.9358284019
  O        22.3672373685        1.3844476901        7.9978185967
  O        36.6727762091       35.0996578207        9.2333646670
  O        16.4455551037        0.0641272707        6.6682678613
  O        17.9364589206        2.0433259301        5.3263572022
  O        18.9189581606        3.5931128562        6.6659030461
  O        29.7356278255       18.8278288441        4.0806937386
  O        29.8260331305       18.9584080038       12.0623618975
  O        31.1402842106       16.4196026004        4.0848403116
  O        31.2139595815       16.4259870841       12.0698888583
  O        31.6349464152       16.7078397426        1.4990762135
  O        27.7528169957       15.2404914988        1.0814071623
  O        29.9840966637       15.7478397678       14.2442652494
  O        30.4197422731       19.1218444284        1.4881952887
  O        28.6020428584       18.3212418218       14.2332879284
  O        39.4567056142       35.2437152986        4.0019807408
  O        19.1414005579        0.0046084815       11.9905538458
  O        41.9695688499       35.1726677654        4.0872232677
  O        21.6913302597       -0.0692993848       11.8958602979
  O        51.3650383526       18.6142944854        4.0054615927
  O        10.7512023988       18.7471304595       11.9049262514
  O        50.0794222612       16.4128030809        4.0917758697
  O         9.5239685461       16.4831755434       11.9912040991
 Zr         9.2967491425       16.0528275505        6.1824006330
 Zr        49.8362679670       16.0068433578        9.7464891597
 Zr        22.0732421429        0.0296834648        6.1889870586
 Zr        42.4607732969       35.1531466380        9.8007391360
 Zr        29.6103377954       19.0977549186        6.2951457972
 Zr        29.5834298441       19.1752126317        9.8734595547
 Zr        11.0380025041       19.0520173449        9.8278056871
 Zr        11.0437673032       19.1548249703        6.2512238592
 Zr        31.3353965605       16.1003007117        9.8840693244
 Zr        31.3731415417       16.0206068239        6.2698990765
 Zr        18.6009584184       -0.0019242624        9.7635162893
 Zr        18.5063786021       -0.0082298471        6.2135432732
 Zr        12.3020599074       16.3236008438        7.9903850771
 Zr        48.6159503487       18.8329874611        8.0104293112
 Zr        20.3147415689        2.4728969693        7.9902411352
 Zr        40.6428800272       32.6864633104        7.9780711495
 Zr        28.3456335057       16.3401677632        8.0851109905
 Zr        32.6274839801       18.8343157666        8.0556753376
  H        30.9023554251       17.8473854545       15.1119360994
  H        29.4624402904       17.2096135014        0.3126367971
  H        28.4101424388       15.7927935464        1.5425016268
