     570
 i =      132, E =     -4745.5713966993
  C        11.8585459626       14.0535499133        5.7415676283
  C        12.4560256739       12.8905044404        5.0233150308
  C        11.7045506904       12.1720583501        4.0811250993
  C        12.2808909221       11.1098457893        3.3887404365
  C        13.6212557746       10.7395472480        3.6169122088
  C        14.3541409669       11.4425646860        4.5910130746
  C        13.7812796881       12.5075202854        5.2825747053
  C        14.2608252954        9.6489211174        2.8434940443
  C        14.2561282858        9.6568133493        1.4217823974
  C        13.7429747704       10.7589053976        0.6678174975
  C        49.1265706274       21.2334712647        5.8796271126
  C        48.5497861981       22.4012764667        5.1525903052
  C        49.2998690285       23.0687119737        4.1716899491
  C        48.7329015935       24.1077938507        3.4384726979
  C        47.4022861025       24.5092848529        3.6669718719
  C        46.6712579223       23.8602626606        4.6803381588
  C        47.2337289707       22.8153901448        5.4097103060
  C        46.7720935218       25.5869667637        2.8696645929
  C        46.7612993867       25.5574097014        1.4479052306
  C        47.2612165497       24.4422912052        0.7044416831
  C        14.8600318290        8.5704382913        0.7085239419
  C        14.8915927468        8.5969446060        3.5201368050
  C        49.1130755037       21.2034313243       10.1452833617
  C        48.5277398947       22.3647605001       10.8724032311
  C        49.2669586791       23.0254607188       11.8653516703
  C        48.6906315156       24.0600033972       12.5968071934
  C        47.3602230499       24.4568135911       12.3585547283
  C        46.6398015026       23.8119056278       11.3350346906
  C        47.2133621578       22.7760205547       10.6032312838
  C        46.7218236228       25.5318062494       13.1495768182
  C        46.7336282178       25.5282165386       14.5712769835
  C        47.2489918579       24.4289870806       15.3276813503
  C        40.6252509568       17.1168849940       15.2752476036
  C        40.6297568141       17.1502627622       12.4665001690
  C        11.8827724371       14.0863952963       10.2854118076
  C        12.4718311120       12.9102897686       10.9894049842
  C        11.7144048841       12.1776509332       11.9160341433
  C        12.2807921994       11.0950982181       12.5844688197
  C        13.6193400261       10.7206901132       12.3521542643
  C        14.3571001662       11.4355274426       11.3906291459
  C        13.7918743308       12.5167914000       10.7179272258
  C        14.2529460013        9.6240199594       13.1226563506
  C        14.2519587655        9.6442073227       14.5445006100
  C        13.7422558290       10.7532460180       15.2915593838
  C        22.5068902294        3.2466707938        5.7424053328
  C        23.2071275404        4.3514251304        5.0217389584
  C        24.2027990923        4.0701735648        4.0739014760
  C        24.8235979222        5.1068069189        3.3799997997
  C        24.4661372342        6.4504598503        3.6114058654
  C        23.4930777265        6.7232401288        4.5909641051
  C        22.8682384044        5.6883709491        5.2837350206
  C        25.0794875351        7.5568580011        2.8370094161
  C        25.0725459864        7.5497707322        1.4146574493
  C        24.3807871818        6.5498596223        0.6603316755
  C        38.3032827177       31.9303102023        5.8479081178
  C        37.5752911743       30.8420504581        5.1357416546
  C        36.6179756819       31.1473091035        4.1561485272
  C        36.0017566608       30.1280752799        3.4355827437
  C        36.3280102352       28.7785621766        3.6733172281
  C        37.2562324710       28.4809003361        4.6888482821
  C        37.8766064303       29.4987191602        5.4082407085
  C        35.7252589891       27.6867541760        2.8767521803
  C        35.7557522050       27.6991207032        1.4554455229
  C        36.4588935882       28.7018244934        0.7162239034
  C        25.7042731532        8.6200295259        0.7006144802
  C        25.6681421689        8.6343763793        3.5128588899
  C        38.3273573160       31.9614234781       10.1548780563
  C        37.6035942934       30.8872154007       10.8928541796
  C        36.6734006286       31.1937326071       11.8978814678
  C        36.0630651402       30.1736369220       12.6249846023
  C        36.3688530259       28.8214161178       12.3713571415
  C        37.2752717642       28.5249272891       11.3349847059
  C        37.8874675884       29.5414249190       10.6087596959
  C        35.7647675445       27.7209855254       13.1568138509
  C        35.7769035620       27.7160400595       14.5787938012
  C        36.4683395191       28.7103547688       15.3395126460
  C        46.1356658798       26.6208889007       15.2813871690
  C        46.0878184681       26.5801215886       12.4734974512
  C        22.4673566654        3.2558225587       10.2491057389
  C        23.1767514824        4.3666443484       10.9528490048
  C        24.1914950468        4.0840401559       11.8808515701
  C        24.8298917429        5.1176599914       12.5617995069
  C        24.4723160098        6.4622581566       12.3378798574
  C        23.4834343594        6.7381194421       11.3751765971
  C        22.8414552303        5.7048965795       10.6934640263
  C        25.1006047961        7.5611470400       13.1126616568
  C        25.0829293432        7.5516074133       14.5352120988
  C        24.3836019076        6.5523078092       15.2836038620
  C        26.5635327174       17.8410858075        5.7797944354
  C        25.2633760195       17.9010205903        5.0512146871
  C        24.9990168318       18.9262164493        4.1293924285
  C        23.7904877259       18.9543077432        3.4371093029
  C        22.8118575077       17.9624647065        3.6480656116
  C        23.0703123454       16.9611146522        4.6026301267
  C        24.2806845707       16.9269757522        5.2918163966
  C        21.5458160732       17.9566214357        2.8751827381
  C        21.5588501451       17.9557044197        1.4535188950
  C        22.7719844491       17.8468839718        0.7033143384
  C        34.3796175964       17.2872131163        5.7379461257
  C        35.6972948281       17.1983912124        5.0485431131
  C        35.9105563038       16.2240400353        4.0610119482
  C        37.1144026051       16.1842674876        3.3649331504
  C        38.1323826258       17.1206369632        3.6319206460
  C        37.9249498839       18.0670638229        4.6529730485
  C        36.7206920899       18.1093250374        5.3511653814
  C        39.3899326578       17.1253980358        2.8528462459
  C        39.3791808250       17.1447042777        1.4312868619
  C        38.1699253352       17.2836689219        0.6790706823
  C        20.3179038389       17.9756943292        0.7364412333
  C        20.3177254106       17.9427338620        3.5492977426
  C        34.4767482566       17.2436552881       10.0984347575
  C        35.7655901591       17.1804671105       10.8432562252
  C        35.9644244074       16.2061302574       11.8332194636
  C        37.1432510081       16.1881709636       12.5731102816
  C        38.1530487848       17.1421817526       12.3412353986
  C        37.9575137365       18.0954834841       11.3242791183
  C        36.7758805336       18.1201636871       10.5884845737
  C        39.4013850837       17.1492023141       13.1358518739
  C        39.3850655650       17.1557748835       14.5568939136
  C        38.1720597499       17.2874158274       15.3027779068
  C        35.1513114387       26.6355165780       15.2850792740
  C        35.1765432199       26.6477072479       12.4762183924
  C        26.5991726152       17.8030885076       10.3262036624
  C        25.2868733104       17.8680491707       11.0354337583
  C        25.0290779938       18.8846196131       11.9672524085
  C        23.8064162736       18.9312432306       12.6322297398
  C        22.8138928892       17.9603205336       12.3907729693
  C        23.0681522796       16.9669642480       11.4276391313
  C        24.2896355770       16.9197869981       10.7591243829
  C        21.5444120206       17.9577224106       13.1550392893
  C        21.5572802836       17.9537225437       14.5765026451
  C        22.7706491135       17.8441347587       15.3272022206
  C        14.0492450060       17.8346367048       10.2815906268
  C        15.3609060845       17.9066564555       10.9918222666
  C        15.6239424173       18.9280255991       11.9177821246
  C        16.8381145412       18.9620384392       12.6005141400
  C        17.8218861008       17.9772611262       12.3796942178
  C        17.5653573331       16.9819684046       11.4181967638
  C        16.3508110710       16.9440287330       10.7361512143
  C        19.0883584548       17.9663131456       13.1525984268
  C        19.0757180821       17.9637804161       14.5745834158
  C        17.8621478452       17.8631201466       15.3252292227
  C        46.8034365967       17.2134225521       10.1497351151
  C        45.5055812208       17.1414991383       10.8766871143
  C        45.2892270137       16.1529404786       11.8485248050
  C        44.1021934613       16.1324000359       12.5748410630
  C        43.1049182498       17.1010076434       12.3502712685
  C        43.3157122933       18.0651606474       11.3466365460
  C        44.5030639114       18.0891842382       10.6208607508
  C        41.8551757156       17.1202070245       13.1410129787
  C        41.8685340689       17.1179094618       14.5622698392
  C        43.0820606216       17.2026157515       15.3148891148
  C        20.3167420826       17.9752443628       15.2918588922
  C        20.3170998194       17.9448941385       12.4793910756
  C        46.7853931083       17.2342754222        5.8813499542
  C        45.4888382982       17.1329444870        5.1506129115
  C        45.2805473088       16.1400016432        4.1805855237
  C        44.0983752743       16.1123448611        3.4439672651
  C        43.0921413855       17.0746053064        3.6588603824
  C        43.2926435126       18.0395733420        4.6644139419
  C        44.4759287054       18.0736593157        5.3962365272
  C        41.8448420025       17.0921514162        2.8606204607
  C        41.8634671529       17.1024941539        1.4389077250
  C        43.0796520366       17.1943735938        0.6916079893
  C        46.1533556678       26.6373087281        0.7261373820
  C        46.1620278207       26.6560200599        3.5357833488
  C        14.0401752556       17.8276200793        5.7037754343
  C        15.3523715587       17.8964096709        4.9978784721
  C        15.6186062215       18.9198511879        4.0761530988
  C        16.8406811259       18.9605085931        3.4094927834
  C        17.8227073675       17.9766473810        3.6396178366
  C        17.5610522906       16.9772891870        4.5944308287
  C        16.3410739906       16.9364907579        5.2651342210
  C        19.0908416069       17.9665451778        2.8734338423
  C        19.0772377203       17.9637732658        1.4519047415
  C        17.8629858050       17.8624068216        0.7014392338
  C        28.8213660362       14.0863890096       10.2771926909
  C        28.2124979461       12.9242962566       10.9901475108
  C        28.9404000660       12.1959723225       11.9430896949
  C        28.3457950925       11.1299105827       12.6152198328
  C        27.0089552583       10.7638360992       12.3571264345
  C        26.3008882751       11.4758096060       11.3715905992
  C        26.8920898185       12.5437420145       10.7005144983
  C        26.3465717391        9.6787790000       13.1206385456
  C        26.3290675149        9.6980377935       14.5423013360
  C        26.8311650418       10.8066570348       15.2945610797
  C        32.1829410276       21.2323370755       10.1449093479
  C        32.7783379074       22.3928251512       10.8680917353
  C        32.0368372057       23.0606466267       11.8545762999
  C        32.6090567326       24.1007575079       12.5799978263
  C        33.9381992632       24.4994857143       12.3408333183
  C        34.6624851107       23.8487660376       11.3242931722
  C        34.0927372761       22.8038814614       10.6000618138
  C        34.5680553080       25.5757501376       13.1383751100
  C        34.5647068120       25.5469730217       14.5601438172
  C        34.0657495258       24.4284761806       15.3000869389
  C        25.7139683753        8.6180543102       15.2553943901
  C        25.7157024372        8.6269190597       12.4421468443
  C        32.0997583080       21.2442295117        5.8810195384
  C        32.6886927966       22.3964628090        5.1440750875
  C        31.9590616668       23.0456736612        4.1357168315
  C        32.5437706862       24.0698127357        3.3950730490
  C        33.8696036585       24.4752428133        3.6453263218
  C        34.5802296661       23.8404588685        4.6824157503
  C        34.0022405943       22.8093966432        5.4175014238
  C        34.5132112918       25.5513715013        2.8577060259
  C        34.5337104260       25.5357647250        1.4358047486
  C        34.0487424476       24.4243844082        0.6770329429
  C        40.6227078491       17.1100765804        0.7196574389
  C        40.6150477872       17.1178942283        3.5288988708
  C        28.6956576696       14.1255596819        5.7063860679
  C        28.0941871626       12.9580437877        4.9993919914
  C        28.8422453356       12.2307039409        4.0600769930
  C        28.2665212767       11.1597908067        3.3816185791
  C        26.9266383556       10.7893090724        3.6144843038
  C        26.1975232714       11.4996128943        4.5866867644
  C        26.7719882368       12.5702503562        5.2697181527
  C        26.2905131389        9.6949671869        2.8414697492
  C        26.3007716407        9.7070575707        1.4194573261
  C        26.8151577996       10.8122412821        0.6704949778
  C        18.1354635199        3.1808168515       10.3170026465
  C        17.4058797656        4.2780470898       11.0155716903
  C        16.3901621162        3.9994935370       11.9430151567
  C        15.7422508272        5.0393377366       12.6065757566
  C        16.0939587217        6.3831066813       12.3669604885
  C        17.0832942892        6.6528314901       11.4032097077
  C        17.7325644191        5.6156171425       10.7381128025
  C        15.4695211776        7.4907413209       13.1300285514
  C        15.4849951598        7.4902299911       14.5517429021
  C        16.1866364722        6.4966809918       15.3049159875
  C        42.9459204712       31.8595579777       10.0729054354
  C        43.6462876245       30.7719161957       10.8168467619
  C        44.5921367740       31.0931930876       11.8026304377
  C        45.1978628746       30.0876071958       12.5502191399
  C        44.8710902252       28.7345881127       12.3355975070
  C        43.9448739369       28.4202883108       11.3227433251
  C        43.3360356137       29.4254681105       10.5747718173
  C        45.4887123905       27.6552946333       13.1387661454
  C        45.4929483482       27.6809899554       14.5604530382
  C        44.8058504357       28.6890595455       15.3070334868
  C        14.8560852987        8.5627784744       15.2640814096
  C        14.8740390282        8.5623729433       12.4514184989
  C        42.9464216982       31.9615346524        5.8089586601
  C        43.6915368227       30.8854292492        5.0953914977
  C        44.6563627873       31.1913210855        4.1233113368
  C        45.2778446475       30.1717242939        3.4055733614
  C        44.9537559050       28.8214333040        3.6429388098
  C        44.0199589276       28.5237722397        4.6534207684
  C        43.3917345654       29.5405478730        5.3656171121
  C        45.5628550109       27.7240591218        2.8577018870
  C        45.5333331533       27.7174506529        1.4364027511
  C        44.8270533595       28.7076927701        0.6834274194
  C        35.1380744606       26.6283514782        0.7298566380
  C        35.1212525031       26.6124302195        3.5392042147
  C        18.1485620136        3.2468835751        5.7065866168
  C        17.4299219485        4.3437916687        4.9973258894
  C        16.4147700055        4.0525003771        4.0737152128
  C        15.7664271040        5.0831078251        3.3982992209
  C        16.1210185056        6.4283543275        3.6210291308
  C        17.1123134778        6.7117618391        4.5783712080
  C        17.7600071464        5.6828692150        5.2581599012
  C        15.4904909632        7.5240380527        2.8485691853
  C        15.4963307029        7.5073815013        1.4274250581
  C        16.1930170150        6.5056211635        0.6807301449
  H        10.6725742428       12.4665313495        3.9037598898
  H        11.6946827481       10.5517030607        2.6618756687
  H        15.3909410428       11.1674419676        4.7732627433
  H        14.3504717891       13.0702049721        6.0186369421
  H        13.3760002184       11.6310789449        1.2010693588
  H        50.3226236324       22.7487866712        3.9870373898
  H        49.3193662225       24.6231536200        2.6809465375
  H        45.6416791397       24.1608449553        4.8633383523
  H        46.6626023181       22.2900130735        6.1716254541
  H        47.6295606035       23.5758341943        1.2461281421
  H        14.8718236147        8.5881154444        4.6084420965
  H        50.2869835914       22.7025834116       12.0602942812
  H        49.2689820337       24.5754205497       13.3603644193
  H        45.6103583248       24.1090583421       11.1460343038
  H        46.6524595146       22.2539096859        9.8316934749
  H        47.6076048484       23.5517814844       14.7968178949
  H        40.6317835506       17.1201703381       11.3786116470
  H        48.6869813330       14.0950035769        7.8001183844
  H        10.6811441043       12.4672343245       12.0938365439
  H        11.6890328757       10.5251407989       13.2975435540
  H        15.3922698490       11.1570042228       11.2041896863
  H        14.3640653689       13.0856266851        9.9888637085
  H        13.3753476687       11.6218127800       14.7529034388
  H        47.9302860410       14.2184237462        9.7107266181
  H        47.7798055075       14.3731328880        6.4951506572
  H        49.0823295419       18.5516525504       10.8665471903
  H        10.4157003753       14.1342851237        7.9987637169
  H        24.4712659212        3.0317344626        3.8925514488
  H        25.5981453262        4.8842515925        2.6491840848
  H        23.2052961721        7.7559240262        4.7771150571
  H        22.0981214675        5.8935545551        6.0234698645
  H        23.8151767019        5.7915344440        1.1939762979
  H        36.3816199466       32.1908168427        3.9619165770
  H        35.2586040655       30.3680113547        2.6783434200
  H        37.5155943034       27.4414613228        4.8789006971
  H        38.6186307269       29.2768504992        6.1715414479
  H        37.0222769462       29.4540947612        1.2605693214
  H        25.6881934575        8.6201970738        4.6011579436
  H        36.4499552749       32.2374497293       12.1070687494
  H        35.3367530398       30.4169405740       13.3973132617
  H        37.5227988812       27.4851355541       11.1317348766
  H        38.6102416070       29.3171467422        9.8281110289
  H        37.0399887130       29.4688125414       14.8125070649
  H        46.1090452550       26.5874222960       11.3854580599
  H        44.6680257364       35.1161243898        7.8142071397
  H        24.4686611444        3.0461709980       12.0512994071
  H        25.6184988638        4.8926208148       13.2766737235
  H        23.1968481930        7.7719390110       11.1933096492
  H        22.0609428570        5.9139649784        9.9655909913
  H        23.8195822434        5.7960854292       14.7454911078
  H        44.9529833878       34.3897330547        9.6947650446
  H        44.9013031281       34.2068040551        6.4905847727
  H        40.6652348750       33.2084425667       10.8527240261
  H        23.1503514952        1.9582227983        8.0010169514
  H        25.7472031473       19.7002255080        3.9733184810
  H        23.5883374056       19.7534091210        2.7270724749
  H        22.3238091563       16.1879940734        4.7727620708
  H        24.4932247507       16.1416939667        6.0134515733
  H        23.7096453484       17.7318131127        1.2392658409
  H        35.1138010478       15.5167032414        3.8428178903
  H        37.2789872368       15.4252940280        2.6033192313
  H        38.7047034511       18.7958230068        4.8644716801
  H        36.5417175854       18.8570186184        6.1203112642
  H        37.2343653260       17.4209291119        1.2131896378
  H        20.3164027533       17.9650408874        4.6376370009
  H        35.1769479391       15.4793824417       12.0180024447
  H        37.2965674157       15.4286244325       13.3365406759
  H        38.7295723756       18.8403552082       11.1429945051
  H        36.6050931599       18.8733639748        9.8230564868
  H        37.2390974842       17.4277532937       14.7638384712
  H        35.1449037473       26.6729987134       11.3886080309
  H        28.4906676752       21.1271560664        7.9899487081
  H        25.7977026411       19.6319558578       12.1512383166
  H        23.6056127481       19.7253906769       13.3481369236
  H        22.3106793123       16.2096687953       11.2361005931
  H        24.5003306405       16.1428487043       10.0281342533
  H        23.7072433090       17.7264613242       14.7905483256
  H        29.0057400745       21.7075947225        9.7802803675
  H        29.0846496367       21.8276662969        6.6136282964
  H        32.1465952874       18.5136330570       10.8980878045
  H        27.3981651302       19.0999223581        8.0981289000
  H        14.8655776754       19.6888781615       12.0883243529
  H        17.0383564547       19.7580672525       13.3145398307
  H        18.3155680527       16.2145612555       11.2386758175
  H        16.1396203105       16.1622607663       10.0103786615
  H        16.9239059326       17.7525913481       14.7894811573
  H        46.0691453665       15.4171702910       12.0297851739
  H        43.9334343572       15.3612118171       13.3231863170
  H        42.5513164076       18.8189255793       11.1697416381
  H        44.6860787304       18.8486221730        9.8644234255
  H        44.0219836605       17.3078546538       14.7807620542
  H        20.3187289571       17.9691680839       11.3910848475
  H        46.0603935741       15.4020336421        4.0067690626
  H        43.9411852366       15.3388688058        2.6953485030
  H        42.5226801793       18.7885539098        4.8376080643
  H        44.6485018800       18.8376335507        6.1504234913
  H        44.0178276253       17.2930971376        1.2299292565
  H        46.1986289316       26.6824742070        4.6232379821
  H        52.7409889906       21.0625473198        8.1946372504
  H        14.8586059277       19.6781115299        3.9012684993
  H        17.0486187616       19.7588845806        2.7003736984
  H        18.3110110460       16.2103310963        4.7766277512
  H        16.1234855833       16.1547285940        5.9888954066
  H        16.9252712316       17.7510645286        1.2376582705
  H        52.3219592980       21.6733187857        6.2947707240
  H        52.0128070524       21.7018588007        9.4955257732
  H        49.0676473078       18.6081597970        5.2036746336
  H        13.2470366011       19.0167577199        7.9748930066
  H        29.9713581234       12.4787079854       12.1438028563
  H        28.9152131791       10.5652688662       13.3504092113
  H        25.2673647514       11.2060310668       11.1642480564
  H        26.3405624568       13.1119517409        9.9554546379
  H        27.2029960191       11.6751375620       14.7589783012
  H        31.0171072012       22.7383294161       12.0498406076
  H        32.0295104416       24.6173567729       13.3418135310
  H        35.6917973201       24.1465890276       11.1353893570
  H        34.6576428618       22.2758638428        9.8354113888
  H        33.7206975171       23.5522052472       14.7582230249
  H        25.7485679278        8.6111331707       11.3541528626
  H        30.9393850308       22.7241336212        3.9356081102
  H        31.9736337182       24.5720429646        2.6166434379
  H        35.6064552157       24.1425960289        4.8807542097
  H        34.5580670276       22.2953419386        6.1981474166
  H        33.6896370378       23.5452626450        1.2048819794
  H        40.6106750964       17.0796641058        4.6166162360
  H        32.5219238488       14.2123404864        8.0646345558
  H        29.8764021738       12.5151109660        3.8792749589
  H        28.8532479591       10.5940554981        2.6610908534
  H        25.1616275644       11.2251995148        4.7753183102
  H        26.2047088372       13.1345619201        6.0062624251
  H        27.1731300027       11.6860954786        1.2067646415
  H        33.2910510866       14.3514708676        6.2492691556
  H        33.4134445729       14.3658821977        9.4424834654
  H        32.0558570964       18.6395371528        4.9836662955
  H        30.2375757458       14.2115698579        7.9024088375
  H        16.1182500028        2.9629312228       12.1293257450
  H        14.9527913973        4.8197666327       13.3221710189
  H        17.3655208497        7.6857686159       11.2101322633
  H        18.5145380809        5.8183726072       10.0102253067
  H        16.7530340972        5.7392346505       14.7713957027
  H        44.8286427715       32.1402496468       11.9766501289
  H        45.9379605391       30.3412695907       13.3059663299
  H        43.6817656109       27.3782724605       11.1529343587
  H        42.5990474109       29.1901491554        9.8104608129
  H        44.2304343116       29.4367523542       14.7686902675
  H        14.8500550809        8.5454167624       11.3632061357
  H        44.9001099115       32.2339869331        3.9320496398
  H        46.0249102220       30.4129012641        2.6524807971
  H        43.7626350495       27.4840763645        4.8446821150
  H        42.6449569929       29.3177350672        6.1237852057
  H        44.2684250538       29.4705061245        1.2179912915
  H        35.0768989650       26.6284084952        4.6265504335
  H        36.6049627243       35.1339240848        8.1807158051
  H        16.1437223893        3.0129068632        3.9040083210
  H        14.9741061251        4.8562004996        2.6882271109
  H        17.3956563200        7.7472556864        4.7553600135
  H        18.5427201367        5.8932951263        5.9831098880
  H        16.7644286312        5.7553635837        1.2191679587
  H        36.2785217658       34.4824640493        6.2732781120
  H        36.3808744523       34.2091926170        9.5000015254
  H        40.5804623301       33.2028577179        5.1537043396
  H        17.4707363013        1.9470050418        7.9740330618
  H        29.1676420471       19.2140150269       12.5003657022
  H        29.9824954032       19.3930345453        3.1752180972
  H        30.4498029030       15.5159984458        3.6279828595
  H        31.3956045386       15.5082143442       12.3267054701
  H        28.2263787162       17.4713185959       14.3612255397
  H        30.1308220497       15.8172280303       14.9435643284
  H        31.5332525183       19.3925608874        1.0431683203
  H        33.5213417679       18.6193368007       16.2033365601
  H        18.8521278943        0.8683259307       12.3352651948
  H        40.5279271872       35.2291173604        3.9520949250
  H        42.3239451682       34.4187728671        3.5907778765
  H        22.0876717486        0.6919640684       12.3519680533
  H        11.5964306588       18.7131961709       12.3830154695
  H        52.2645655630       18.4314294367        3.6773553071
  H        49.2551589175       16.4770124814        3.5844777370
  H        10.1501375248       15.7983399514       12.2931484557
  H        50.8498009604       17.6923345605        3.9541135397
  H        10.0458190042       17.3946024442       12.0520502684
  H        20.2129841694        0.0017639497       12.0422578790
  H        39.1835928711       36.1242612370        3.6860149605
 Ni        30.9845265971       17.2562187611        2.0014625741
 Ni        31.8310860015       17.4204713850       -0.8298568259
 Ni        29.8444944949       18.4011872004       -0.0787943243
 Ni        30.2664153024       17.3275654321       13.0747103967
  O        10.6498514669       14.3651596859        5.4858086663
  O        12.6131518804       14.6575103094        6.5838813029
  O        49.1478642419       16.8459773758        7.9897109920
  O        50.3501335785       20.9361813914        5.6482057933
  O        48.3485168947       20.5933338162        6.6658819111
  O        11.0510280109       17.0539060934        6.5006826752
  O        50.3209928108       20.8816809806       10.4067763938
  O        48.3467590032       20.5866757587        9.3270313098
  O        49.5441343894       18.2484890860       10.0681534822
  O        12.3588737625       18.6245132158        7.9997024989
  O        48.6931585500       14.1486297387        6.7513010705
  O         8.2099909137       14.2103208378        9.3224186075
  O        10.7353190721       14.5067520589       10.6643885594
  O        12.5717906873       14.5828066974        9.3285355341
  O        22.8454040765        2.0450123882        5.4855723226
  O        21.6075219981        3.5942624651        6.5868765641
  O        42.0581516066       34.1374744523        7.9789693356
  O        37.9819766855       33.1390024814        5.5726866811
  O        39.2179603286       31.5763990633        6.6664523076
  O        20.3087035454        1.0401900945        6.5016897381
  O        38.0244591128       33.1854033455       10.4150829950
  O        39.2193050166       31.5838755901        9.3261878057
  O        40.6522746967       33.7693710206       10.0602560601
  O        18.2555771174        1.3760564772        7.9967156018
  O        44.6221574875       35.1006475485        6.7588455298
  O        24.2053938158        0.0000603640        9.3208135169
  O        22.7534122110        2.0586615098       10.5833600963
  O        21.6240671536        3.5954467442        9.3404111626
  O        27.4634164920       18.7073003898        5.4823451544
  O        26.6894028269       16.9309135425        6.6634828447
  O        30.6648586911       19.4122959974        8.0019679835
  O        33.4941062177       16.4210706455        5.4157034517
  O        34.2256867251       18.2410365970        6.5783510494
  O        29.5335768080       17.1311297871        6.4948216120
  O        33.6183729955       16.3226142803       10.3121137292
  O        34.3104798722       18.2430050910        9.3145906787
  O        31.7060632280       18.3039205409       10.0568388436
  O        30.3209830732       15.1789659334        7.9182631223
  O        28.5118486568       21.0975623614        6.9090454297
  O        28.5171073351       20.9514134724        9.4116767523
  O        27.5099569242       18.6251435768       10.6656966535
  O        26.6983062389       16.9210289205        9.4005245565
  O        13.1487070957       18.6935148229       10.5863978776
  O        13.9195155311       16.9161229012        9.4046037525
  O        50.5958816553       19.3502732388        8.0207180404
  O        47.6840211521       16.3265123864       10.4163420421
  O        46.9531274049       18.1761531165        9.3228516354
  O        11.0696263734       17.0156276917        9.4896188684
  O        47.6753548526       16.3358111010        5.6523683972
  O        46.9247774346       18.2354438354        6.6621678765
  O        49.5684100140       18.3177505031        5.9820223658
  O        10.3185963646       15.1001630601        7.9970359496
  O        52.6707064707       21.0279462856        9.2418433825
  O        12.1468131487       20.8912598887        6.6732679759
  O        13.1051400059       18.6142602421        5.3258731774
  O        13.9567788227       16.9870624504        6.6642425151
  O        30.0129143993       14.4338228188       10.5690364577
  O        28.0836784387       14.6555643482        9.3980495501
  O        32.1004377673       16.9197158315        7.9061242366
  O        30.9649692881       20.9441759060       10.4046556929
  O        32.9466842936       20.5994034264        9.3318322020
  O        29.5777006370       17.0748549559        9.4920893921
  O        30.8715829190       20.9564535470        5.6604148507
  O        32.8749886509       20.5941054023        6.6597215168
  O        31.5557639136       18.3204283195        5.7511174663
  O        28.2786314566       18.6902614021        8.0659210078
  O        32.4953791087       14.2162203744        9.1502905722
  O        32.4054978897       14.3552106089        6.6495084468
  O        29.8602654250       14.5123803930        5.3293498442
  O        28.0089193317       14.6491371894        6.6506543941
  O        17.8892323843        1.9665839998       10.6627873930
  O        18.9562733221        3.5271327006        9.4078940717
  O        39.1686918054       34.1388457223        7.9971517039
  O        43.2802686342       33.0590567724       10.3316834533
  O        42.0346093472       31.5064977636        9.2416246139
  O        20.3175896368        1.0366834680        9.4797325763
  O        43.2760565585       33.1825652167        5.5748945136
  O        42.0053211633       31.5841729768        6.5830365725
  O        40.5792266543       33.7752632217        5.9360391517
  O        22.3673924198        1.3847608535        7.9976756053
  O        36.6727662158       35.0997597449        9.2333188311
  O        16.4455134868        0.0643364114        6.6682969022
  O        17.9363493497        2.0433749276        5.3264233498
  O        18.9191859481        3.5931870751        6.6658170465
  O        29.3987027042       19.4168018979        3.9865138556
  O        29.8993668169       18.8352214176       11.9741845651
  O        31.0593899523       16.2691033123        3.7432905609
  O        31.3493243436       16.3517714065       11.8379996877
  O        30.8524716081       16.0495643505       14.3284245317
  O        32.7531819961       18.8963076925       15.6718676934
  O        30.6784224633       19.1234778387        1.4907764903
  O        28.9714166801       18.0958663965       14.3000379352
  O        39.4568223349       35.2438312700        4.0019632369
  O        19.1401498863        0.0038414320       11.9906548856
  O        41.9696314251       35.1727625702        4.0872932058
  O        21.6913136711       -0.0691376363       11.8957835866
  O        51.3646872728       18.6143102253        4.0053297151
  O        10.7508979386       18.7472779032       11.9050033659
  O        50.0796347115       16.4127957144        4.0917020156
  O         9.5243868704       16.4830988742       11.9912366819
 Zr         9.2959245107       16.0527545980        6.1823439493
 Zr        49.8364522434       16.0068255627        9.7465152193
 Zr        22.0733678211        0.0298406609        6.1892308820
 Zr        42.4606219179       35.1533793130        9.8011045815
 Zr        29.5705005070       19.1746758019        6.2914569378
 Zr        29.6060354155       19.1595855663        9.8484409995
 Zr        11.0375043141       19.0521896834        9.8279269759
 Zr        11.0429817954       19.1550430031        6.2513448508
 Zr        31.3732325835       16.0998410057        9.7077915344
 Zr        31.3305702777       16.1024073079        6.0550303074
 Zr        18.6009298262       -0.0019223000        9.7631709645
 Zr        18.5062731325       -0.0079709724        6.2137674691
 Zr        12.3011550306       16.3234806896        7.9904629474
 Zr        48.6158356040       18.8331315407        8.0095636988
 Zr        20.3154136875        2.4732727507        7.9898887740
 Zr        40.6431764487       32.6865837761        7.9782998165
 Zr        28.3356894572       16.3564045254        8.0250968809
 Zr        32.6483903634       18.8622311946        7.9950697556
  H        29.9151633035       17.0095132970        0.8882130956
  H        28.5495173101       19.0021365321        3.7436025360
