     570
 i =      306, E =     -4745.5521968209
  C        11.8586789654       14.0534856729        5.7416070422
  C        12.4561724505       12.8905031719        5.0232898958
  C        11.7045814152       12.1718130077        4.0813735290
  C        12.2809447511       11.1096218968        3.3889834206
  C        13.6214297831       10.7396047511        3.6168855714
  C        14.3544903441       11.4429506697        4.5906006085
  C        13.7816060248       12.5078877854        5.2821768777
  C        14.2609343215        9.6489331243        2.8434878116
  C        14.2561062639        9.6567470479        1.4217857361
  C        13.7429644713       10.7588625951        0.6678597762
  C        49.1266492595       21.2334288800        5.8796957071
  C        48.5497984300       22.4012989708        5.1526293364
  C        49.2998393849       23.0686557124        4.1716668829
  C        48.7328503222       24.1077069500        3.4383960400
  C        47.4022783933       24.5092453878        3.6669968219
  C        46.6713310090       23.8603888201        4.6805226371
  C        47.2338338963       22.8155426372        5.4099250337
  C        46.7720324137       25.5869116065        2.8697060052
  C        46.7610335337       25.5572830859        1.4479496888
  C        47.2608932126       24.4421417484        0.7044778000
  C        14.8599331078        8.5703350743        0.7085365062
  C        14.8917205451        8.5969908201        3.5201206211
  C        49.1130442785       21.2033947138       10.1452753377
  C        48.5276059754       22.3647021961       10.8725133170
  C        49.2667812751       23.0252871747       11.8655501699
  C        48.6904865798       24.0598841052       12.5969723311
  C        47.3601461336       24.4567928515       12.3586130197
  C        46.6397839009       23.8120225372       11.3349745507
  C        47.2133066203       22.7760799469       10.6032101626
  C        46.7217450100       25.5317946157       13.1496147997
  C        46.7333362872       25.5280994039       14.5713162473
  C        47.2486812270       24.4288556654       15.3277157614
  C        40.6221175614       17.1110936722       15.2842082798
  C        40.6291162050       17.1553868673       12.4753637414
  C        11.8828186616       14.0864346862       10.2854820193
  C        12.4719149071       12.9104273283       10.9895766363
  C        11.7143638663       12.1774991373       11.9158722037
  C        12.2807836456       11.0949481318       12.5842754809
  C        13.6194682241       10.7208674425       12.3522396604
  C        14.3574292944       11.4360937262       11.3911718186
  C        13.7921640809       12.5173535303       10.7185016287
  C        14.2530236629        9.6241206838       13.1226929785
  C        14.2519223612        9.6441856741       14.5445413368
  C        13.7422296332       10.7532261866       15.2916048890
  C        22.5059668495        3.2456705980        5.7426839821
  C        23.2048548840        4.3498061443        5.0218731434
  C        24.2001485531        4.0683506826        4.0738700874
  C        24.8198088989        5.1051650536        3.3797594032
  C        24.4610226792        6.4482264660        3.6117552749
  C        23.4882769394        6.7211898143        4.5913808244
  C        22.8645472362        5.6862096689        5.2843092505
  C        25.0741510246        7.5545799505        2.8386733206
  C        25.0691408699        7.5478504983        1.4166473611
  C        24.3777347988        6.5485543207        0.6612147438
  C        38.3039427649       31.9308065104        5.8480057799
  C        37.5767426791       30.8422467308        5.1353187226
  C        36.6206109636       31.1474580566        4.1547278540
  C        36.0050389895       30.1279598229        3.4340911809
  C        36.3308309764       28.7787364921        3.6734922746
  C        37.2581376165       28.4810216798        4.6896469638
  C        37.8780786267       29.4992084991        5.4088274706
  C        35.7270144663       27.6873747398        2.8774923270
  C        35.7585015730       27.6993336221        1.4563281986
  C        36.4667444812       28.6986692118        0.7172957333
  C        25.7023410062        8.6181410884        0.7044113625
  C        25.6608670509        8.6316208460        3.5165140233
  C        38.3280720729       31.9617754371       10.1550709092
  C        37.6055084188       30.8872379576       10.8941610930
  C        36.6761175623       31.1937048589       11.8998155356
  C        36.0667385548       30.1734478098       12.6274745911
  C        36.3725441334       28.8214702115       12.3730388165
  C        37.2785011616       28.5249122815       11.3364392844
  C        37.8899916528       29.5416640055       10.6099823253
  C        35.7671342178       27.7215590462       13.1580293644
  C        35.7795794585       27.7165078128       14.5799354505
  C        36.4761082199       28.7073671343       15.3406007748
  C        46.1353938856       26.6207821792       15.2814331051
  C        46.0878739966       26.5801894340       12.4735517557
  C        22.4677385230        3.2564747729       10.2495863929
  C        23.1772239601        4.3674204205       10.9533590104
  C        24.1917576150        4.0851631579       11.8818398287
  C        24.8299830500        5.1188755295       12.5629502870
  C        24.4728179956        6.4637176726       12.3391893029
  C        23.4844013764        6.7392181495       11.3758103776
  C        22.8425753650        5.7059211891       10.6938426765
  C        25.1005496341        7.5624970800       13.1151782605
  C        25.0819176052        7.5518884042       14.5377109758
  C        24.3816301748        6.5521675895       15.2845752390
  C        26.5607030338       17.8366223533        5.7786868622
  C        25.2611053795       17.8961452795        5.0506370167
  C        25.0018951896       18.9156702293        4.1214017272
  C        23.7934005650       18.9441905891        3.4296556654
  C        22.8110097466       17.9580372280        3.6486354800
  C        23.0648196268       16.9621318657        4.6099974653
  C        24.2750370830       16.9277450400        5.2989539509
  C        21.5446764818       17.9526422998        2.8775843660
  C        21.5553556191       17.9487409110        1.4559717939
  C        22.7669490020       17.8362598954        0.7036677894
  C        34.3815884642       17.2810637943        5.7660038211
  C        35.6964131786       17.1838427019        5.0703913885
  C        35.9087317896       16.2016446423        4.0906489458
  C        37.1101459701       16.1594318837        3.3892608544
  C        38.1272695215       17.1002992227        3.6439413310
  C        37.9208531612       18.0544864959        4.6580160727
  C        36.7191165494       18.0997932920        5.3602967875
  C        39.3843005610       17.1044679476        2.8625312530
  C        39.3744397588       17.1238328125        1.4408116673
  C        38.1647204981       17.2537792132        0.6879514049
  C        20.3130465687       17.9701360494        0.7414825475
  C        20.3181226941       17.9428247401        3.5542243774
  C        34.4755822166       17.2453004094       10.0980492035
  C        35.7647272300       17.1825530067       10.8456160186
  C        35.9635857441       16.2055702624       11.8328859684
  C        37.1421751972       16.1854874218       12.5736045389
  C        38.1518859675       17.1410147661       12.3468101628
  C        37.9562374440       18.0971264057       11.3322363112
  C        36.7752450252       18.1229846849       10.5948299202
  C        39.3996295563       17.1471787418       13.1433652916
  C        39.3823007750       17.1460042169       14.5647613360
  C        38.1681820567       17.2635270762       15.3115150367
  C        35.1481438062       26.6394472667       15.2860678605
  C        35.1764010264       26.6498930702       12.4770325675
  C        26.5796105752       17.8271107738       10.3217905713
  C        25.2648253778       17.8795888408       11.0274319067
  C        25.0030789302       18.8951374300       11.9593275985
  C        23.7836641572       18.9326662511       12.6294922473
  C        22.7983008075       17.9543169272       12.3908938829
  C        23.0552398508       16.9623213473       11.4273695597
  C        24.2750474168       16.9231286115       10.7550132812
  C        21.5318223252       17.9470520981       13.1582694458
  C        21.5479549788       17.9441037665       14.5794942568
  C        22.7629396653       17.8333251688       15.3274597552
  C        14.0469489952       17.8334125200       10.2827014096
  C        15.3553795381       17.9024782539       10.9963724085
  C        15.6155692610       18.9213802955       11.9256853680
  C        16.8277643759       18.9530625540       12.6113175937
  C        17.8111711965       17.9684498006       12.3891713355
  C        17.5571251341       16.9752233711       11.4250467200
  C        16.3445926021       16.9394723533       10.7402277013
  C        19.0771336520       17.9568824276       13.1607373500
  C        19.0667548244       17.9567900892       14.5823938998
  C        17.8544747392       17.8584109553       15.3352710770
  C        46.8032108154       17.2152185802       10.1521158990
  C        45.5065355383       17.1470575886       10.8835444620
  C        45.2895974148       16.1596387090       11.8565297583
  C        44.1030712313       16.1407254739       12.5841948278
  C        43.1056849764       17.1096477180       12.3604561774
  C        43.3176911526       18.0737026411       11.3568472623
  C        44.5046539130       18.0961667126       10.6297935692
  C        41.8545316660       17.1266983973       13.1504075903
  C        41.8661187817       17.1205035903       14.5718798257
  C        43.0786172710       17.2080831728       15.3257935514
  C        20.3090289432       17.9677824554       15.2971921117
  C        20.3039187560       17.9337041873       12.4848631703
  C        46.7849535119       17.2335320789        5.8825829075
  C        45.4868669828       17.1299636036        5.1544334416
  C        45.2782366400       16.1358472143        4.1857517561
  C        44.0946010714       16.1056987440        3.4516416822
  C        43.0874514157       17.0666380209        3.6677535878
  C        43.2882610549       18.0327815727        4.6719573197
  C        44.4730714697       18.0693287917        5.4013471883
  C        41.8395031298       17.0816488606        2.8704469902
  C        41.8588096779       17.0958800407        1.4487613390
  C        43.0751365485       17.1956628449        0.7025670074
  C        46.1531017131       26.6372002086        0.7261873729
  C        46.1621461077       26.6560640876        3.5358284440
  C        14.0401984101       17.8287664192        5.7053318744
  C        15.3531116210       17.8996984124        5.0027483504
  C        15.6199345131       18.9238488431        4.0820505339
  C        16.8426484761       18.9646225235        3.4169774889
  C        17.8238109781       17.9802103186        3.6479969784
  C        17.5621866878       16.9812781320        4.6030697528
  C        16.3416819400       16.9403413092        5.2722675212
  C        19.0904352497       17.9674473356        2.8805490090
  C        19.0738149433       17.9616919340        1.4592636883
  C        17.8579144232       17.8601907321        0.7115172531
  C        28.8179783291       14.0870861441       10.2798342510
  C        28.2088046220       12.9271820007       10.9957151041
  C        28.9355710418       12.2053375615       11.9544221311
  C        28.3424721018       11.1385935401       12.6266953210
  C        27.0080985364       10.7666192475       12.3640741613
  C        26.3007165137       11.4739869853       11.3747298358
  C        26.8906901711       12.5418854408       10.7026305893
  C        26.3467038345        9.6804952094       13.1265594487
  C        26.3293057069        9.6980610202       14.5482573264
  C        26.8338822642       10.8045570557       15.3024372919
  C        32.1808071315       21.2331675096       10.1441967669
  C        32.7773190150       22.3936516800       10.8696502943
  C        32.0300233981       23.0710001469       11.8451867777
  C        32.6003966054       24.1125854194       12.5704742932
  C        33.9337188318       24.5036151290       12.3416023450
  C        34.6641875578       23.8433513649       11.3357820405
  C        34.0959135910       22.7970998924       10.6118425448
  C        34.5625505863       25.5809583434       13.1389571085
  C        34.5548950852       25.5550953078       14.5605866692
  C        34.0432467924       24.4428740009       15.3010002758
  C        25.7129982605        8.6175149144       15.2593264173
  C        25.7161207848        8.6291723345       12.4465826437
  C        32.0975237946       21.2443988898        5.8815233437
  C        32.6862400328       22.3982622453        5.1441830135
  C        31.9521247612       23.0537373866        4.1432618238
  C        32.5347554492       24.0800925471        3.4035718174
  C        33.8634208352       24.4804978257        3.6469066874
  C        34.5787027734       23.8393468033        4.6767693563
  C        34.0022031197       22.8069169450        5.4114557683
  C        34.5068031029       25.5569012458        2.8591390540
  C        34.5240827787       25.5435069549        1.4373069108
  C        34.0264472595       24.4383474999        0.6777539423
  C        40.6184303765       17.0990574863        0.7289545538
  C        40.6095917892       17.1015355517        3.5386658767
  C        28.7096859249       14.0932400960        5.7408358558
  C        28.1007624690       12.9338294632        5.0256814643
  C        28.8510774589       12.1963844472        4.0961709440
  C        28.2695200674       11.1355524203        3.4070070386
  C        26.9225663700       10.7825565239        3.6234844093
  C        26.1896819798       11.5028762621        4.5851194784
  C        26.7690410060       12.5663708679        5.2755015545
  C        26.2854092668        9.6913974896        2.8468070328
  C        26.2995238508        9.7035898324        1.4251120799
  C        26.8185932599       10.8079295691        0.6784248424
  C        18.1354460551        3.1809863094       10.3170758181
  C        17.4058716498        4.2781221938       11.0155742014
  C        16.3901062601        3.9995636167       11.9429854992
  C        15.7421453273        5.0394116947       12.6064537605
  C        16.0939528746        6.3831867969       12.3669298162
  C        17.0833790540        6.6529063930       11.4032651192
  C        17.7327108352        5.6156944052       10.7382498135
  C        15.4694835882        7.4907873479       13.1300099194
  C        15.4848542738        7.4901587111       14.5517279168
  C        16.1864545205        6.4965654090       15.3048875613
  C        42.9459987429       31.8596504821       10.0728983490
  C        43.6463962551       30.7719918026       10.8168287946
  C        44.5919612655       31.0932922773       11.8028722411
  C        45.1976423921       30.0877139565       12.5505172250
  C        44.8711785733       28.7346630980       12.3356369154
  C        43.9453538319       28.4203523806       11.3224174537
  C        43.3365665001       29.4255123324       10.5743937187
  C        45.4887078545       27.6553370233       13.1388157807
  C        45.4927803242       27.6809480753       14.5605033599
  C        44.8057081038       28.6890213604       15.3070981604
  C        14.8559521824        8.5626885413       15.2641007256
  C        14.8741502175        8.5625237069       12.4514069995
  C        42.9464753166       31.9615915686        5.8089769739
  C        43.6916325064       30.8854665075        5.0954634834
  C        44.6561680778       31.1913814779        4.1231102958
  C        45.2776353602       30.1717920368        3.4053446239
  C        44.9538965638       28.8214719441        3.6430297364
  C        44.0204598382       28.5238097220        4.6538589194
  C        43.3922584168       29.5405739282        5.3660816652
  C        45.5628597598       27.7240591414        2.8577603308
  C        45.5331811148       27.7173968524        1.4364625910
  C        44.8269226063       28.7076556195        0.6834889659
  C        35.1349524941       26.6320662175        0.7308713543
  C        35.1198262025       26.6151584112        3.5403530251
  C        18.1486082855        3.2470031742        5.7065348374
  C        17.4299760263        4.3438189629        4.9972938739
  C        16.4147383077        4.0525239589        4.0737545657
  C        15.7664622743        5.0831320463        3.3983108172
  C        16.1210453963        6.4283892917        3.6210333718
  C        17.1124937684        6.7117764335        4.5782194962
  C        17.7601262160        5.6829039488        5.2580722568
  C        15.4905496434        7.5240580752        2.8485539534
  C        15.4962081725        7.5072646138        1.4274211394
  C        16.1928467647        6.5054993986        0.6807012663
  H        10.6725236584       12.4661084926        3.9042093656
  H        11.6946808533       10.5512863446        2.6623136772
  H        15.3914368699       11.1681722525        4.7725270207
  H        14.3509672991       13.0708882205        6.0178678203
  H        13.3760997354       11.6310756566        1.2011221794
  H        50.3225676532       22.7486547483        3.9869585013
  H        49.3192994387       24.6229858003        2.6807983035
  H        45.6418175047       24.1611157537        4.8636501442
  H        46.6628308942       22.2902318431        6.1719854624
  H        47.6293598185       23.5757459900        1.2461796187
  H        14.8721898640        8.5883076570        4.6084228307
  H        50.2867766745       22.7023223717       12.0605278789
  H        49.2688548385       24.5752625222       13.3605426247
  H        45.6104375154       24.1093902414       11.1458038600
  H        46.6525335982       22.2540508242        9.8315164806
  H        47.6073823640       23.5516965874       14.7968343310
  H        40.6320412598       17.1293613446       11.3873574002
  H        48.6870349882       14.0950770445        7.8000947345
  H        10.6809978465       12.4668489588       12.0934287510
  H        11.6889677295       10.5247406368       13.2971039775
  H        15.3927631426       11.1579451990       11.2050802486
  H        14.3645134783       13.0865079080        9.9898133736
  H        13.3754405570       11.6218444512       14.7529432561
  H        47.9302284904       14.2185385112        9.7108288607
  H        47.7798708890       14.3734726839        6.4952600995
  H        49.0827075035       18.5518135271       10.8667576391
  H        10.4158243345       14.1342813851        7.9988620521
  H        24.4689704218        3.0299631917        3.8929495150
  H        25.5944016024        4.8837081728        2.6486840882
  H        23.2003318965        7.7538700537        4.7771906889
  H        22.0945144193        5.8904709504        6.0243256415
  H        23.8113879951        5.7900689468        1.1938389216
  H        36.3847943079       32.1909797489        3.9598936755
  H        35.2627658751       30.3673456117        2.6758124678
  H        37.5170269906       27.4416058878        4.8804796070
  H        38.6196034900       29.2780229274        6.1728076979
  H        37.0336615591       29.4480902031        1.2619131512
  H        25.6782244790        8.6173243930        4.6048289705
  H        36.4526013596       32.2374193652       12.1089689346
  H        35.3410036906       30.4163745918       13.4004694620
  H        37.5260525003       27.4851803117       11.1329082323
  H        38.6124959337       29.3178911402        9.8289367161
  H        37.0511718198       29.4631243034       14.8133839771
  H        46.1093695426       26.5876152065       11.3855191124
  H        44.6681682842       35.1162194868        7.8141856607
  H        24.4689594855        3.0473750101       12.0527280462
  H        25.6181954131        4.8935942804       13.2781858893
  H        23.1978903933        7.7729816844       11.1934923521
  H        22.0624513921        5.9153832775        9.9656618196
  H        23.8178784274        5.7965661190       14.7453401673
  H        44.9533916805       34.3901149010        9.6950414685
  H        44.9017311753       34.2069299906        6.4906261773
  H        40.6658055378       33.2089208304       10.8529719207
  H        23.1502384299        1.9584892107        8.0012671497
  H        25.7545057952       19.6839392923        3.9586965030
  H        23.5943905717       19.7386967021        2.7136494402
  H        22.3148729348       16.1935470215        4.7853550478
  H        24.4851063589       16.1468951172        6.0260711349
  H        23.7054233181       17.7189738979        1.2378339702
  H        35.1135404601       15.4893227599        3.8827973485
  H        37.2734835934       15.3943420555        2.6334439784
  H        38.6998550115       18.7864336945        4.8611713501
  H        36.5412029371       18.8534899442        6.1238331298
  H        37.2276639724       17.3782159969        1.2226512395
  H        20.3191462992       17.9676142841        4.6424914283
  H        35.1756857647       15.4783203457       12.0142923937
  H        37.2955120060       15.4223856678       13.3335118199
  H        38.7280433991       18.8429297571       11.1534919536
  H        36.6051990480       18.8775901887        9.8305192609
  H        37.2342778420       17.3952185587       14.7723719941
  H        35.1471490904       26.6743364137       11.3893379591
  H        28.4871462054       21.1313683549        7.9873458206
  H        25.7682604499       19.6467793137       12.1396354163
  H        23.5793981905       19.7244854392       13.3469917631
  H        22.3019808482       16.2000411406       11.2390406263
  H        24.4901151029       16.1466978899       10.0247331632
  H        23.6982399045       17.7138077476       14.7888038985
  H        29.0138155215       21.7090797899        9.7738611107
  H        29.0874780561       21.8243369835        6.6099334072
  H        32.1215325001       18.5211830588       10.8674995545
  H        27.3570488921       19.1025193998        8.0945217176
  H        14.8568078338       19.6818610347       12.0958726111
  H        17.0274473234       19.7471131873       13.3276546441
  H        18.3080220909       16.2084870548       11.2456950266
  H        16.1341793981       16.1598715002       10.0119721727
  H        16.9151306963       17.7474407103       14.8015672479
  H        46.0684508191       15.4225877426       12.0373303796
  H        43.9346302438       15.3695807984       13.3326768429
  H        42.5542114481       18.8283927580       11.1798344523
  H        44.6873512893       18.8553601423        9.8729866309
  H        44.0184924318       17.3189832132       14.7926625065
  H        20.3036423506       17.9573568978       11.3965760716
  H        46.0589915973       15.3990890967        4.0109346723
  H        43.9372210362       15.3317382731        2.7035535119
  H        42.5174444358       18.7806646892        4.8460945946
  H        44.6461175312       18.8341280993        6.1546033117
  H        44.0124222506       17.2967653243        1.2420195290
  H        46.1990148461       26.6826252335        4.6232745192
  H        52.7411822480       21.0625943860        8.1946178840
  H        14.8598705113       19.6818883620        3.9065783939
  H        17.0517882971       19.7626907194        2.7078773308
  H        18.3123795448       16.2147044486        4.7858484042
  H        16.1231383952       16.1587841793        5.9959031220
  H        16.9211484932       17.7506000189        1.2496910731
  H        52.3222999317       21.6735381675        6.2947073907
  H        52.0132592423       21.7023227945        9.4954172475
  H        49.0677408425       18.6079711304        5.2035864444
  H        13.2473476116       19.0165136237        7.9755104531
  H        29.9638783018       12.4944456219       12.1596596091
  H        28.9113669640       10.5777047369       13.3651244662
  H        25.2686971482       11.2004288139       11.1649092562
  H        26.3400488140       13.1062890882        9.9540246545
  H        27.2075550835       11.6730329658       14.7682181455
  H        31.0060997031       22.7560080766       12.0306482937
  H        32.0154951559       24.6376275266       13.3224861831
  H        35.6964778560       24.1356112057       11.1544105352
  H        34.6647339430       22.2624176361        9.8546747574
  H        33.6854421985       23.5736982475       14.7565159890
  H        25.7497667824        8.6149168528       11.3585886489
  H        30.9298710318       22.7362017175        3.9493699161
  H        31.9602887801       24.5885938039        2.6323341521
  H        35.6069077067       24.1381013392        4.8700871111
  H        34.5608369767       22.2883415936        6.1871596661
  H        33.6551030060       23.5655779159        1.2072624721
  H        40.6054567996       17.0630765016        4.6263675923
  H        32.5203964071       14.2099525794        8.0578223830
  H        29.8923218001       12.4643321921        3.9322366612
  H        28.8571815429       10.5628754945        2.6927131096
  H        25.1479715194       11.2417412840        4.7600900486
  H        26.1992658782       13.1398910198        6.0029777445
  H        27.1797299280       11.6792583749        1.2169276372
  H        33.3028855981       14.3859062242        6.2779510731
  H        33.4118599408       14.3636628821        9.4441331038
  H        32.0503966515       18.6263227189        4.9774762794
  H        30.2388944134       14.2144553987        7.9048625203
  H        16.1181126210        2.9630191276       12.1292398887
  H        14.9526404345        4.8198845109       13.3220132622
  H        17.3657522000        7.6858276365       11.2103099658
  H        18.5148022153        5.8185078748       10.0105108265
  H        16.7529221144        5.7391730213       14.7713645473
  H        44.8282482864       32.1403714210       11.9770857762
  H        45.9375344494       30.3414259480       13.3064491612
  H        43.6826494252       27.3782895270       11.1522836197
  H        42.5999344762       29.1902054101        9.8097389737
  H        44.2304308227       29.4368285721       14.7687683729
  H        14.8503398375        8.5457171441       11.3631815709
  H        44.8997006977       32.2340626535        3.9316394564
  H        46.0245241398       30.4129998848        2.6520830756
  H        43.7635689859       27.4840729992        4.8454792692
  H        42.6458382842       29.3177866994        6.1246052507
  H        44.2684432945       29.4705757974        1.2180525842
  H        35.0768524176       26.6308973046        4.6277512368
  H        36.6050676338       35.1340501399        8.1806054532
  H        16.1436625252        3.0129452958        3.9040575328
  H        14.9740785143        4.8562540258        2.6883041667
  H        17.3959307269        7.7472526244        4.7551434159
  H        18.5429536321        5.8933874744        5.9828761312
  H        16.7643459066        5.7552871084        1.2191005354
  H        36.2785309765       34.4826999574        6.2731384908
  H        36.3808114190       34.2092441518        9.4997814770
  H        40.5809890139       33.2033724132        5.1535121802
  H        17.4707552454        1.9474853467        7.9740816971
  H        29.2952663735       19.3352041355       12.5014621210
  H        29.9912372966       19.4905517061        3.2122959506
  H        30.5363524274       15.3998676515        3.7044653642
  H        31.2926743311       15.4856910531       12.2877937769
  H        28.2202941646       17.7636335169       14.4411297272
  H        29.7328082984       15.5944514548       14.6732133733
  H        31.7895563243       19.2700520407        1.5761988059
  H        32.6070557260       19.0472459694       15.2498701059
  H        18.8522234093        0.8685352336       12.3351044509
  H        40.5280733029       35.2290409936        3.9520116636
  H        42.3244420344       34.4193128954        3.5903036888
  H        22.0875492135        0.6919681114       12.3521316024
  H        11.5962334464       18.7130772437       12.3829415623
  H        52.2646984636       18.4314971521        3.6774120592
  H        49.2551878148       16.4767498463        3.5843235685
  H        10.1502771077       15.7984052739       12.2929829175
  H        50.8499696235       17.6924642881        3.9540256429
  H        10.0459166161       17.3948089666       12.0519588778
  H        20.2131066105        0.0018782924       12.0422142444
  H        39.1837034088       36.1243183670        3.6860594322
 Ni        30.4422631983       17.2795747609        2.2448562513
 Ni        31.7047583687       16.7023373138       -0.5817857036
 Ni        30.0616146656       18.4697768536       -0.0749536927
 Ni        30.1434233264       17.2986519102       12.9930833342
  O        10.6499570159       14.3651474520        5.4857993201
  O        12.6131697214       14.6574733566        6.5838974197
  O        49.1477757722       16.8459223291        7.9896946251
  O        50.3501142380       20.9362519284        5.6481587715
  O        48.3484767465       20.5933326797        6.6658724891
  O        11.0510115339       17.0539214489        6.5006792979
  O        50.3208401429       20.8817197553       10.4068493316
  O        48.3466587874       20.5866660374        9.3270642809
  O        49.5440017919       18.2484509462       10.0681478155
  O        12.3590064583       18.6246139796        7.9996594913
  O        48.6931558273       14.1486350438        6.7513016678
  O         8.2099174102       14.2104209629        9.3224920720
  O        10.7352654304       14.5067578971       10.6643778317
  O        12.5717128978       14.5827410768        9.3285405515
  O        22.8448943083        2.0440532390        5.4859351930
  O        21.6070130153        3.5936777467        6.5874360353
  O        42.0583073631       34.1376229077        7.9790891870
  O        37.9820477095       33.1391021707        5.5726704672
  O        39.2181114484       31.5764409966        6.6666471694
  O        20.3087239126        1.0402846938        6.5018289606
  O        38.0244736876       33.1853813119       10.4151702857
  O        39.2194043906       31.5838848482        9.3261093570
  O        40.6523198706       33.7694664211       10.0602537295
  O        18.2555219096        1.3764292351        7.9967482494
  O        44.6221739887       35.1006382476        6.7588680237
  O        24.2054022968        0.0000692582        9.3208098928
  O        22.7534746819        2.0589787086       10.5835255431
  O        21.6242440146        3.5956307776        9.3407765304
  O        27.4596308301       18.7020345782        5.4803083356
  O        26.6872013627       16.9281294657        6.6634719572
  O        30.6562079998       19.4137028906        7.9941774350
  O        33.4935737919       16.4105569999        5.4772339118
  O        34.2275758206       18.2500232551        6.5850049376
  O        29.5258348338       17.1332794104        6.5009591117
  O        33.6194717711       16.3230901771       10.3108668448
  O        34.3111024472       18.2441581486        9.3138614035
  O        31.7047506904       18.3035090197       10.0157303966
  O        30.3168276037       15.1820001867        7.9277929034
  O        28.5107625418       21.0983856345        6.9078007358
  O        28.5152607565       20.9575525860        9.4090068689
  O        27.4665927936       18.6778849531       10.6550948024
  O        26.6968195987       16.9272121471        9.4105427642
  O        13.1472367044       18.6937162497       10.5861315214
  O        13.9186120046       16.9160716334        9.4042260622
  O        50.5959117393       19.3502620510        8.0205651774
  O        47.6829904305       16.3270057363       10.4168285646
  O        46.9526104692       18.1762845192        9.3232649828
  O        11.0694062936       17.0157010803        9.4895602294
  O        47.6751859174       16.3358395277        5.6524300693
  O        46.9245528754       18.2355166707        6.6622010945
  O        49.5684407742       18.3177351780        5.9820275844
  O        10.3185862199       15.1001398588        7.9970994652
  O        52.6706886888       21.0279706918        9.2418089360
  O        12.1468172444       20.8913529860        6.6733032736
  O        13.1046330999       18.6143540307        5.3261638404
  O        13.9561386383       16.9869279145        6.6646834566
  O        30.0098518747       14.4332890463       10.5698376440
  O        28.0815542529       14.6549794484        9.3991814288
  O        32.1010357825       16.9210302269        7.9072526565
  O        30.9639021243       20.9466068895       10.4031726683
  O        32.9464098440       20.6012456972        9.3318815627
  O        29.5709189985       17.0765072898        9.4901978671
  O        30.8707525709       20.9572911314        5.6598196543
  O        32.8747107078       20.5958189292        6.6591758242
  O        31.5522024464       18.3201777932        5.7510479775
  O        28.2354793041       18.6901031525        8.0601384637
  O        32.4942051329       14.2161292641        9.1503320730
  O        32.4082718957       14.3502010199        6.6557067117
  O        29.8972695578       14.4411519949        5.4042233427
  O        28.0065217357       14.6488997653        6.6537808155
  O        17.8892838807        1.9666083758       10.6627861919
  O        18.9562762178        3.5271487410        9.4079410447
  O        39.1686695728       34.1389043441        7.9971586060
  O        43.2802503952       33.0590975940       10.3317249407
  O        42.0346192754       31.5065077927        9.2416484800
  O        20.3176239355        1.0367548994        9.4797568037
  O        43.2760415869       33.1825564444        5.5748926648
  O        42.0053173516       31.5841707164        6.5830487449
  O        40.5792467286       33.7753518224        5.9361475880
  O        22.3674400592        1.3847852014        7.9978126906
  O        36.6727828063       35.0997897969        9.2332646752
  O        16.4455762462        0.0644082878        6.6683348154
  O        17.9363670416        2.0433638616        5.3264575842
  O        18.9191488707        3.5931794167        6.6658377991
  O        29.3607454554       19.4930545934        3.9940208146
  O        29.9003861469       18.8448783339       11.9100432724
  O        30.9660929418       16.2679644579        3.8384809478
  O        31.3452440025       16.3457087549       11.8252664040
  O        30.5405463388       15.8089784713       14.1717728586
  O        31.8541538483       18.5408569158       14.9032173469
  O        30.8325624643       19.1252328832        1.6708271947
  O        29.0588783192       18.2353738148       14.3080196495
  O        39.4568549145       35.2438345523        4.0019715873
  O        19.1401835260        0.0039409892       11.9906448636
  O        41.9695502813       35.1727334921        4.0872486007
  O        21.6912856102       -0.0691528784       11.8958481771
  O        51.3647467762       18.6143380297        4.0052865242
  O        10.7506235700       18.7472784756       11.9050484374
  O        50.0795522062       16.4127528031        4.0917222186
  O         9.5244038705       16.4831398750       11.9912150495
 Zr         9.2965290441       16.0527367582        6.1823448973
 Zr        49.8366673080       16.0068804372        9.7465503450
 Zr        22.0735300953        0.0302099178        6.1891946119
 Zr        42.4608837527       35.1539829737        9.8013063603
 Zr        29.5536395634       19.1721129343        6.2861896760
 Zr        29.5874234768       19.1631458531        9.8231476641
 Zr        11.0377454998       19.0522083742        9.8278831925
 Zr        11.0435405405       19.1549915394        6.2511536199
 Zr        31.3720871167       16.0968905348        9.7046607986
 Zr        31.3195572951       16.1014045008        6.0861107791
 Zr        18.6011481453       -0.0012718409        9.7630884700
 Zr        18.5065692711       -0.0072249624        6.2138508751
 Zr        12.3015546784       16.3234520335        7.9904438343
 Zr        48.6163507298       18.8330083161        8.0095943781
 Zr        20.3156247871        2.4739392460        7.9901706001
 Zr        40.6437762403       32.6873271590        7.9783609068
 Zr        28.3224235240       16.3577559364        8.0314302908
 Zr        32.6422823759       18.8648769158        7.9938886801
  H        29.2714158442       17.5446018744        0.9910366796
  H        28.5493337501       19.0342744570        3.7037528563
