     569
 i =       84, E =     -4729.5234356044
  C        11.8585533204       14.0533924089        5.7415644637
  C        12.4559801690       12.8903562946        5.0233002919
  C        11.7045225234       12.1720597438        4.0809847825
  C        12.2808220482       11.1098461715        3.3885771726
  C        13.6211271181       10.7393914012        3.6168478514
  C        14.3539883607       11.4422391133        4.5910955655
  C        13.7811522888       12.5071779197        5.2826967079
  C        14.2606389360        9.6487645375        2.8434106927
  C        14.2558634498        9.6566439173        1.4217006859
  C        13.7427119347       10.7587302739        0.6677297362
  C        49.1264257594       21.2335561555        5.8796744481
  C        48.5495493166       22.4012823565        5.1526019611
  C        49.2996708464       23.0688364206        4.1718080318
  C        48.7326520971       24.1078635790        3.4385642224
  C        47.4019696223       24.5091761599        3.6669605337
  C        46.6708937414       23.8600274230        4.6802018477
  C        47.2334073010       22.8151928297        5.4095934396
  C        46.7717668973       25.5868463158        2.8696587944
  C        46.7609190715       25.5572506552        1.4479092807
  C        47.2608225645       24.4421169469        0.7044631737
  C        14.8596778423        8.5702330844        0.7084333956
  C        14.8913988128        8.5967766832        3.5200394595
  C        49.1129086410       21.2034958937       10.1452807878
  C        48.5274695412       22.3646972092       10.8724740229
  C        49.2666322214       23.0254610977       11.8654180680
  C        48.6901974353       24.0599434884       12.5968672296
  C        47.3597496612       24.4566072504       12.3586143022
  C        46.6393847552       23.8116250899       11.3351055711
  C        47.2130409635       22.7757987850       10.6033078281
  C        46.7212874609       25.5315622461       13.1496066228
  C        46.7331307013       25.5279837058       14.5713003786
  C        47.2485317496       24.4287700031       15.3277047240
  C        40.6282502088       17.1343520008       15.3115389980
  C        40.6458326187       17.2164730307       12.5026861240
  C        11.8826204662       14.0862804931       10.2853720622
  C        12.4714875764       12.9100342658       10.9892836014
  C        11.7140428772       12.1776861944       11.9161265041
  C        12.2802697621       11.0950552469       12.5845646138
  C        13.6186707684       10.7202668792       12.3520309503
  C        14.3564081645       11.4347591727       11.3902257654
  C        13.7913421239       12.5161001756       10.7175281709
  C        14.2522106000        9.6236011520       13.1225669561
  C        14.2513948005        9.6438955721       14.5444122894
  C        13.7418557630       10.7530076862       15.2914710496
  C        22.5041002392        3.2420036870        5.7474083341
  C        23.2035744363        4.3446129873        5.0316061940
  C        24.2007593382        4.0611458374        4.0870732614
  C        24.8196648039        5.0981285368        3.3946662005
  C        24.4550939836        6.4385410023        3.6278732136
  C        23.4815690778        6.7137793810        4.6049805490
  C        22.8588290598        5.6787672140        5.2963779054
  C        25.0620193330        7.5442442073        2.8548600529
  C        25.0484740292        7.5389271984        1.4342396051
  C        24.3573177348        6.5372041582        0.6821802696
  C        38.2979158499       31.9276033784        5.8518079678
  C        37.5566251722       30.8388307590        5.1507911640
  C        36.5914647036       31.1452191357        4.1788436385
  C        35.9616555538       30.1270075209        3.4680721119
  C        36.2814969999       28.7756927154        3.7055540563
  C        37.2156636434       28.4768319120        4.7155499228
  C        37.8494181675       29.4939300774        5.4258151703
  C        35.6738456416       27.6861799086        2.9062114677
  C        35.7177734513       27.6988255277        1.4844776063
  C        36.4274486867       28.7016607164        0.7512782731
  C        25.6753341755        8.6120387618        0.7229061895
  C        25.6510012432        8.6174851617        3.5328496381
  C        38.3304537156       31.9598367383       10.1607885051
  C        37.6155052918       30.8853765865       10.9099756782
  C        36.6808593288       31.1918313711       11.9112778927
  C        36.0736455670       30.1729358378       12.6437136537
  C        36.3858425840       28.8200332816       12.4001739850
  C        37.3011801582       28.5235308572       11.3712542578
  C        37.9099467027       29.5388332670       10.6396749141
  C        35.7750662583       27.7193474893       13.1826790657
  C        35.7689356403       27.7160683859       14.6055651856
  C        36.4501011613       28.7112424739       15.3745682605
  C        46.1351879755       26.6206712640       15.2813969146
  C        46.0872680866       26.5798541504       12.4735174482
  C        22.4639518172        3.2536942952       10.2510465873
  C        23.1675956895        4.3617444768       10.9622650232
  C        24.1800049204        4.0746859296       11.8912211675
  C        24.8145600989        5.1051866183       12.5795743324
  C        24.4546769532        6.4495304561       12.3606677391
  C        23.4673687005        6.7301765800       11.3980721503
  C        22.8288894326        5.7000247926       10.7092926060
  C        25.0815591753        7.5459914054       13.1377402234
  C        25.0588831645        7.5390880694       14.5593727515
  C        24.3597377707        6.5388451583       15.3058359520
  C        26.5524931381       17.8316679222        5.7801385740
  C        25.2528712316       17.8897309271        5.0588285771
  C        25.0050425950       18.8929194717        4.1086924548
  C        23.7976998972       18.9186523914        3.4160083345
  C        22.8066604898       17.9448925519        3.6525241140
  C        23.0498155395       16.9661114347        4.6341434613
  C        24.2585230297       16.9345111875        5.3252027593
  C        21.5424644865       17.9343540580        2.8794904879
  C        21.5532796157       17.9260243528        1.4577188175
  C        22.7639369567       17.8079253774        0.7046113763
  C        34.4285080466       17.1725423922        5.8846566456
  C        35.7249954185       17.0972592363        5.1538400726
  C        35.9188142990       16.1407483418        4.1453112567
  C        37.1031540806       16.1217635214        3.4136305942
  C        38.1245861610       17.0562843772        3.6726339412
  C        37.9350226252       17.9880294221        4.7111241683
  C        36.7482698983       18.0145968925        5.4379949559
  C        39.3777873773       17.0723758402        2.8858061816
  C        39.3719664948       17.1119259834        1.4643438302
  C        38.1646448787       17.2489479376        0.7090633819
  C        20.3108425492       17.9499986099        0.7435830686
  C        20.3156541054       17.9271903839        3.5559601490
  C        34.5010233852       17.2424180135       10.1131587718
  C        35.7875146828       17.2023886430       10.8621138959
  C        36.0050814407       16.2140440593       11.8345252710
  C        37.1807403532       16.2085186444       12.5784059731
  C        38.1694985171       17.1889532441       12.3685580347
  C        37.9558937351       18.1581874182       11.3703604095
  C        36.7762034232       18.1705766717       10.6301577320
  C        39.4149993907       17.1990215470       13.1673981481
  C        39.3912040236       17.1776132183       14.5885701170
  C        38.1735725908       17.2794773394       15.3323855942
  C        35.1352817710       26.6359549063       15.3063866643
  C        35.1957674059       26.6438768753       12.4963642816
  C        26.5628956822       17.8443277745       10.3154217245
  C        25.2471713288       17.8993618202       11.0116887245
  C        24.9923484589       18.9033061698       11.9587495642
  C        23.7775302197       18.9319784049       12.6367946546
  C        22.7895579551       17.9580932210       12.3893299163
  C        23.0384788462       16.9808742501       11.4086084447
  C        24.2543267829       16.9483629906       10.7299384296
  C        21.5263149667       17.9422047900       13.1602857611
  C        21.5445443779       17.9292413651       14.5813264890
  C        22.7592802382       17.8094231751       15.3282470774
  C        14.0455479700       17.8331127764       10.2827481206
  C        15.3533264249       17.9010460683       10.9977884466
  C        15.6129715971       18.9192658932       11.9278158292
  C        16.8243301176       18.9494554203       12.6149633169
  C        17.8065798404       17.9639951443       12.3926910618
  C        17.5531008256       16.9712580259       11.4281101765
  C        16.3413480244       16.9369575185       10.7420645424
  C        19.0723405834       17.9506085248       13.1640268287
  C        19.0631335507       17.9441059126       14.5855573165
  C        17.8509217677       17.8450033513       15.3383081359
  C        46.8046663605       17.2207998538       10.1582010122
  C        45.5145867204       17.1671195301       10.9022523629
  C        45.2966695557       16.1871809945       11.8827078934
  C        44.1141113387       16.1804602079       12.6172473235
  C        43.1214648019       17.1547415132       12.3940280652
  C        43.3364241558       18.1140779083       11.3863887604
  C        44.5188392132       18.1238466005       10.6519083728
  C        41.8690692585       17.1760385557       13.1816723652
  C        41.8748079139       17.1534665348       14.6031793564
  C        43.0843703827       17.2318820035       15.3627020459
  C        20.3059548958       17.9510426563       15.2995466906
  C        20.2982085368       17.9320764988       12.4873062156
  C        46.7845004601       17.2297358409        5.8879677009
  C        45.4826101457       17.1165566590        5.1708305402
  C        45.2739329682       16.1179832740        4.2070068394
  C        44.0871703503       16.0812795055        3.4789655858
  C        43.0785792822       17.0395371188        3.6979961070
  C        43.2778481854       18.0076567448        4.7001568017
  C        44.4661011332       18.0513258302        5.4228807035
  C        41.8323113564       17.0550292276        2.8999048162
  C        41.8565615976       17.0888945113        1.4791430695
  C        43.0756208759       17.2009711237        0.7392260396
  C        46.1529715656       26.6371399680        0.7261385096
  C        46.1617533697       26.6559228536        3.5357791369
  C        14.0388889863       17.8272047322        5.7051813271
  C        15.3514531895       17.8941552434        5.0016073729
  C        15.6229385559       18.9202146082        4.0846743127
  C        16.8461392141       18.9573529168        3.4203218423
  C        17.8218202789       17.9672008837        3.6489471776
  C        17.5553659286       16.9655413747        4.5994365563
  C        16.3344835266       16.9283667511        5.2678723630
  C        19.0885144061       17.9508680242        2.8822404813
  C        19.0717665412       17.9432813678        1.4612775079
  C        17.8551959740       17.8443490135        0.7145414748
  C        28.8137856755       14.0707460253       10.3554386681
  C        28.2082889469       12.8982089402       11.0419943425
  C        28.9290637056       12.1782993694       12.0065107491
  C        28.3306776720       11.1097398944       12.6687003647
  C        27.0005638352       10.7369781428       12.3875203243
  C        26.3034297137       11.4369080627       11.3863322921
  C        26.8971719561       12.5076341484       10.7249790999
  C        26.3300827135        9.6589722257       13.1476322967
  C        26.3013370200        9.6873703483       14.5678925722
  C        26.7903537107       10.8032769170       15.3182115624
  C        32.1972055825       21.2313895689       10.1422393272
  C        32.7944360000       22.3869628322       10.8717990672
  C        32.0478351403       23.0639314878       11.8490345546
  C        32.6188207996       24.1035704286       12.5765327092
  C        33.9527435995       24.4954731287       12.3502576733
  C        34.6823771542       23.8356253592       11.3428276876
  C        34.1140252835       22.7906302234       10.6163732260
  C        34.5777436250       25.5730139578       13.1523333329
  C        34.5567472114       25.5473521599       14.5745918467
  C        34.0488682476       24.4305317938       15.3107082087
  C        25.6858265893        8.6080577714       15.2792741252
  C        25.7025032608        8.6072551454       12.4675997403
  C        32.0727351307       21.1991894341        5.8755381400
  C        32.6432885100       22.3629215800        5.1363400492
  C        31.9222329819       22.9916974972        4.1094351248
  C        32.4979405015       24.0310445710        3.3805886802
  C        33.8085130192       24.4704707001        3.6562606817
  C        34.5091996061       23.8546282364        4.7118186999
  C        33.9393569813       22.8123665687        5.4370945791
  C        34.4538192153       25.5525139998        2.8753338116
  C        34.4928025705       25.5371157844        1.4528035857
  C        34.0172748101       24.4260531191        0.6873935692
  C        40.6186910014       17.1004264761        0.7557949191
  C        40.6015307315       17.0623414719        3.5649708873
  C        28.6878109840       14.0258862133        5.8186527877
  C        28.0755836977       12.8835735195        5.0894242182
  C        28.8089896363       12.2116703830        4.0990112000
  C        28.2304604160       11.1629716681        3.3916840704
  C        26.9034129453       10.7637699857        3.6473183759
  C        26.1881121069       11.4224259769        4.6650582406
  C        26.7649316546       12.4716735059        5.3764837128
  C        26.2660539903        9.6822784477        2.8633201862
  C        26.2683258609        9.7008009002        1.4418747058
  C        26.7713235129       10.8115829127        0.6940527332
  C        18.1351530706        3.1806728338       10.3171176116
  C        17.4054315143        4.2777771513       11.0156844685
  C        16.3898978992        3.9991108212       11.9432895702
  C        15.7418314112        5.0389003834       12.6067748808
  C        16.0932288147        6.3827054658       12.3669234090
  C        17.0823625027        6.6525308063       11.4029985292
  C        17.7317843080        5.6153750479       10.7379805264
  C        15.4687577949        7.4903191983       13.1299591575
  C        15.4844477671        7.4899258990       14.5516672054
  C        16.1862917347        6.4964989433       15.3048116172
  C        42.9457590739       31.8594295474       10.0728236052
  C        43.6460515076       30.7717197910       10.8167373257
  C        44.5917477943       31.0929696764       11.8026707395
  C        45.1973640340       30.0873658814       12.5503157416
  C        44.8706455484       28.7343546563       12.3355834665
  C        43.9446272930       28.4200802096       11.3225345068
  C        43.3359167859       29.4252780249       10.5744898575
  C        45.4881858371       27.6550470193       13.1387770362
  C        45.4924766424       27.6807796243       14.5604633302
  C        44.8054792388       28.6889112462       15.3070542926
  C        14.8555911049        8.5625070246       15.2639964446
  C        14.8731668716        8.5618737719       12.4513369721
  C        42.9463505062       31.9614438460        5.8089792401
  C        43.6913552079       30.8853181072        5.0953423212
  C        44.6563682475       31.1912077120        4.1234475967
  C        45.2778053237       30.1716081982        3.4056769200
  C        44.9535209797       28.8213451139        3.6429059405
  C        44.0195076295       28.5236758008        4.6531783551
  C        43.3913252410       29.5404570227        5.3653945150
  C        45.5625973171       27.7239561950        2.8576855650
  C        45.5330273824       27.7173197571        1.4363981502
  C        44.8267809893       28.7075957466        0.6834443450
  C        35.1058155017       26.6290166345        0.7520330937
  C        35.0575115342       26.6143031537        3.5621447343
  C        18.1483332644        3.2467693391        5.7065718557
  C        17.4297127922        4.3436072773        4.9971333644
  C        16.4145845777        4.0523072421        4.0735125727
  C        15.7662315478        5.0829246965        3.3981102826
  C        16.1207949347        6.4281677855        3.6208827289
  C        17.1121035192        6.7115822829        4.5781999773
  C        17.7597712418        5.6826842222        5.2579908474
  C        15.4902617907        7.5238650946        2.8484582125
  C        15.4960594847        7.5072188623        1.4273197877
  C        16.1927934262        6.5054996495        0.6806224254
  H        10.6725952834       12.4666520931        3.9035386454
  H        11.6946208586       10.5518055335        2.6616287013
  H        15.3907329176       11.1669599786        4.7734321242
  H        14.3502925583       13.0696894842        6.0189307886
  H        13.3758454896       11.6309573862        1.2009661772
  H        50.3224848742       22.7490385157        3.9872655239
  H        49.3191180060       24.6233214619        2.6811059904
  H        45.6412454069       24.1604471239        4.8630702335
  H        46.6622412873       22.2896662781        6.1713754327
  H        47.6292041840       23.5756869005        1.2461697015
  H        14.8716552444        8.5879346955        4.6083445029
  H        50.2866926754       22.7026855618       12.0603499087
  H        49.2684940313       24.5754569456       13.3603997195
  H        45.6099401503       24.1087400257       11.1460675641
  H        46.6522251608       22.2536270558        9.8317453342
  H        47.6071358026       23.5515561830       14.7968490308
  H        40.6514834269       17.2024916377       11.4144926669
  H        48.6869402119       14.0948304612        7.7999325096
  H        10.6808940539       12.4675661862       12.0940999530
  H        11.6884865495       10.5253231273       13.2977988608
  H        15.3914375426       11.1558679941       11.2035607750
  H        14.3634958840       13.0846502825        9.9882157351
  H        13.3749395801       11.6215716101       14.7528189347
  H        47.9300065285       14.2179049647        9.7108537655
  H        47.7799830855       14.3731746073        6.4950837566
  H        49.0829924601       18.5523805932       10.8671846268
  H        10.4157326267       14.1342549402        7.9988579383
  H        24.4694584511        3.0224512694        3.9082673535
  H        25.5957954609        4.8805774575        2.6641262681
  H        23.1929341021        7.7467660495        4.7875911786
  H        22.0866360606        5.8791412907        6.0350217126
  H        23.7943204212        5.7780457931        1.2173629793
  H        36.3597120252       32.1892476178        3.9817745517
  H        35.2143729133       30.3699358678        2.7157970260
  H        37.4708162451       27.4366849835        4.9076656790
  H        38.5962069750       29.2689523434        6.1836610174
  H        36.9849046449       29.4546059962        1.3007349642
  H        25.6787766541        8.5963855053        4.6207205888
  H        36.4492064938       32.2353417652       12.1126025253
  H        35.3423796186       30.4184277842       13.4106994440
  H        37.5568009817       27.4841939827       11.1757139793
  H        38.6371553002       29.3124707045        9.8636766092
  H        37.0257248404       29.4711940011       14.8539135242
  H        46.1085239501       26.5871576094       11.3854787229
  H        44.6682019701       35.1161577790        7.8141701960
  H        24.4582179158        3.0361932140       12.0556915608
  H        25.6019384464        4.8785810897       13.2952865543
  H        23.1803195260        7.7648170357       11.2218679490
  H        22.0495884056        5.9108145803        9.9806437396
  H        23.7980864959        5.7814532607       14.7669163502
  H        44.9535190568       34.3898487593        9.6947322463
  H        44.9021538351       34.2069331012        6.4907027316
  H        40.6657348738       33.2085371171       10.8530721609
  H        23.1499524177        1.9575878664        8.0025632802
  H        25.7681291183       19.6464059716        3.9276491262
  H        23.6068508544       19.7003188725        2.6839351076
  H        22.2936830502       16.2067034351        4.8222209881
  H        24.4611702065       16.1639635413        6.0651091672
  H        23.7023129528       17.6825324584        1.2372561768
  H        35.1239637161       15.4286107430        3.9363095237
  H        37.2502492971       15.3761760985        2.6353449320
  H        38.7167012284       18.7165939399        4.9158761129
  H        36.5834835897       18.7522486474        6.2198134871
  H        37.2247850893       17.3621956143        1.2417699115
  H        20.3162911745       17.9560632778        4.6441009916
  H        35.2346765701       15.4654057694       12.0020148710
  H        37.3486850951       15.4378637791       13.3274764130
  H        38.7121367645       18.9230344285       11.2061747402
  H        36.5913172699       18.9339337375        9.8779450940
  H        37.2407686472       17.4151933401       14.7923213075
  H        35.1782644931       26.6676981693       11.4083711258
  H        28.5047823176       21.1066381431        7.8643673209
  H        25.7590562712       19.6520788447       12.1449189248
  H        23.5783586149       19.7131126098       13.3672528724
  H        22.2824061261       16.2232877091       11.2129984908
  H        24.4638678257       16.1800880374        9.9896396528
  H        23.6940893032       17.6854637122       14.7897096810
  H        29.0291073028       21.8004849954        9.7300156762
  H        29.1964386517       21.6979215816        6.5309548389
  H        32.0674519871       18.4860861026       10.9211974689
  H        27.3719651826       18.9869168857        8.1059968560
  H        14.8544852541       19.6801886243       12.0972729808
  H        17.0241459380       19.7427539220       13.3321062234
  H        18.3035219811       16.2038762965       11.2495636710
  H        16.1304557971       16.1580050165       10.0132619017
  H        16.9113511191       17.7368591052       14.8044110545
  H        46.0706202896       15.4446050234       12.0621251498
  H        43.9438960069       15.4129214815       13.3689908025
  H        42.5777731475       18.8737781592       11.2100279988
  H        44.7023959043       18.8781794264        9.8904955748
  H        44.0261622416       17.3508588154       14.8346682671
  H        20.2967664767       17.9628688813       11.3992130836
  H        46.0576773581       15.3850143144        4.0299156592
  H        43.9291473011       15.3065848913        2.7317534521
  H        42.5040037341       18.7520482595        4.8756814386
  H        44.6402651096       18.8183483968        6.1735547166
  H        44.0106821275       17.2956115482        1.2836749991
  H        46.1983643828       26.6823859649        4.6232325139
  H        52.7410000963       21.0625796537        8.1946377995
  H        14.8663431466       19.6823296303        3.9118017973
  H        17.0597848254       19.7565344424        2.7138149425
  H        18.3016258765       16.1943555711        4.7788391116
  H        16.1111053858       16.1452692241        5.9883293794
  H        16.9187799461       17.7357816587        1.2536029466
  H        52.3219077457       21.6734708146        6.2948838031
  H        52.0130268221       21.7021474164        9.4954800763
  H        49.0669628845       18.6076150218        5.2041396108
  H        13.2467820699       19.0167453407        7.9754194965
  H        29.9527280366       12.4737823578       12.2257104305
  H        28.8888471151       10.5510027775       13.4167729066
  H        25.2759373573       11.1574124762       11.1629610031
  H        26.3548475259       13.0714993428        9.9702474201
  H        27.1550036429       11.6746918422       14.7826641495
  H        31.0233487242       22.7513194662       12.0351220630
  H        32.0336080980       24.6262305758       13.3298990193
  H        35.7149817682       24.1269332807       11.1616061653
  H        34.6839728497       22.2580828233        9.8584104279
  H        33.7086329222       23.5552495619       14.7647212684
  H        25.7434240740        8.5874315939       11.3799892113
  H        30.9175092432       22.6414715612        3.8829468845
  H        31.9307540083       24.5172469373        2.5898967438
  H        35.5237762093       24.1797217913        4.9325838118
  H        34.4900586170       22.3156367597        6.2322823052
  H        33.6527359727       23.5470553448        1.2114459638
  H        40.5949492229       17.0090760060        4.6519883901
  H        32.5001421209       14.0907513997        7.7965951810
  H        29.8288988786       12.5309315859        3.8980092910
  H        28.8045516100       10.6368417265        2.6322691065
  H        25.1614095154       11.1244984736        4.8672562124
  H        26.2086864528       12.9987407262        6.1478483111
  H        27.1189229847       11.6902509544        1.2296705164
  H        33.3567965923       14.3486948969        6.4567457578
  H        33.4075363292       14.2198746900        9.6242780136
  H        31.9919492883       18.4334468191        5.0436222536
  H        30.1433906952       14.1966839380        8.1243248934
  H        16.1182719256        2.9625091261       12.1297943495
  H        14.9525139698        4.8192663392       13.3225066558
  H        17.3643185063        7.6855077143       11.2097450758
  H        18.5136077181        5.8181854429       10.0099485899
  H        16.7527586835        5.7391152916       14.7712768796
  H        44.8282097316       32.1400244710       11.9767658565
  H        45.9373482606       30.3410227641       13.3061751471
  H        43.6816498676       27.3780556318       11.1525816113
  H        42.5991726106       29.1900004574        9.8099284815
  H        44.2301052599       29.4366505902       14.7687330717
  H        14.8490193436        8.5448043366       11.3631300115
  H        44.9002838072       32.2338635424        3.9323425593
  H        46.0250238212       30.4127654965        2.6527273476
  H        43.7620181059       27.4839908347        4.8442768071
  H        42.6443796965       29.3176783045        6.1234065427
  H        44.2682838292       29.4704928179        1.2180278964
  H        35.0027824067       26.6308050638        4.6490440237
  H        36.6052074617       35.1338187119        8.1806297283
  H        16.1435837641        3.0127087615        3.9037612383
  H        14.9739237962        4.8560246549        2.6880216115
  H        17.3954868154        7.7470698298        4.7551585389
  H        18.5424706778        5.8931053783        5.9829521771
  H        16.7643591172        5.7553528975        1.2190515960
  H        36.2788019557       34.4820706672        6.2733498601
  H        36.3807232092       34.2089864326        9.4996881284
  H        40.5787416892       33.2014486861        5.1543640020
  H        17.4704848379        1.9468635406        7.9739423811
  H        29.2865103199       19.4181137126       12.5049803632
  H        28.7513457741       18.8635048725        3.7307191275
  H        31.8614655530       15.9008929004        3.4544094365
  H        31.3301443890       15.5945146333       12.4527343907
  H        28.0251316630       18.0634055379       14.1532194576
  H        29.4355289247       15.5574501226       14.4708452396
  H        32.7166635659       17.2797800914        1.2633891976
  H        18.8529281672        0.8687657873       12.3351384049
  H        40.5284055403       35.2290214819        3.9522934090
  H        42.3228568240       34.4181797563        3.5908208365
  H        22.0876505291        0.6923199552       12.3516373962
  H        11.5966038128       18.7131873826       12.3827422546
  H        52.2646097357       18.4315795263        3.6772056191
  H        49.2559725221       16.4768286885        3.5839571969
  H        10.1506278103       15.7980582020       12.2923593973
  H        50.8499356180       17.6923130834        3.9541582777
  H        10.0462447603       17.3945436039       12.0519752224
  H        20.2142018236        0.0021477121       12.0420639254
  H        39.1836168259       36.1241250729        3.6861174694
 Ni        30.5638152192       17.6934237125        2.5830625816
 Ni        31.0283301229       16.4034074584       -0.0022586722
 Ni        29.4687525003       18.1286680112        0.2467922177
 Ni        30.0958831616       17.3769346900       13.0789229858
  O        10.6498937063       14.3651100001        5.4857793541
  O        12.6131120863       14.6574138150        6.5838459224
  O        49.1479266360       16.8460112072        7.9896954338
  O        50.3500455501       20.9364492534        5.6483041837
  O        48.3484579706       20.5933047693        6.6658948782
  O        11.0509640585       17.0541383791        6.5005564364
  O        50.3208217130       20.8817101167       10.4068324975
  O        48.3466931199       20.5867227990        9.3270132506
  O        49.5435345772       18.2484446631       10.0683458746
  O        12.3585922626       18.6245860476        7.9997016431
  O        48.6932603717       14.1484941769        6.7513128856
  O         8.2097999457       14.2104775484        9.3226561221
  O        10.7352574466       14.5067644258       10.6643507382
  O        12.5717560296       14.5827253246        9.3285672780
  O        22.8442149044        2.0418573120        5.4876436567
  O        21.6042031301        3.5916275333        6.5899594351
  O        42.0578718795       34.1369661237        7.9790974346
  O        37.9812429835       33.1364561023        5.5723811985
  O        39.2173556039       31.5752566604        6.6657941878
  O        20.3083271977        1.0394632245        6.5016752041
  O        38.0240643488       33.1841528092       10.4159924282
  O        39.2184871585       31.5830345776        9.3273446007
  O        40.6521240866       33.7690381918       10.0603035160
  O        18.2555131361        1.3761783894        7.9967531206
  O        44.6222506459       35.1005571279        6.7588502730
  O        24.2054585771       -0.0000968704        9.3207892956
  O        22.7529373881        2.0566173117       10.5826944154
  O        21.6234928667        3.5947668311        9.3404504005
  O        27.4506984715       18.6937757388        5.4898647450
  O        26.6848093344       16.9166828016        6.6653821545
  O        30.6317614666       19.3411037398        8.0093620701
  O        33.5669157462       16.2527536923        5.6636586659
  O        34.2621443763       18.1733401655        6.6630894614
  O        29.5224875041       17.0090568209        6.5751626584
  O        33.6730355327       16.2867978652       10.3253311843
  O        34.3093352988       18.2339826649        9.3282755062
  O        31.6793762866       18.2528643027       10.0596945353
  O        30.2635612559       15.1593469812        8.0751018423
  O        28.5473755117       21.0308739266        6.8255978333
  O        28.5503445864       21.0195169944        9.4051355453
  O        27.4580627584       18.6845880158       10.6529932592
  O        26.6916152157       16.9281714677        9.4147562401
  O        13.1467096248       18.6939508593       10.5861549091
  O        13.9182821620       16.9160419465        9.4041395646
  O        50.5957019869       19.3503611029        8.0206003983
  O        47.6814008238       16.3277232445       10.4172733957
  O        46.9528253544       18.1767598315        9.3230878913
  O        11.0691354017       17.0157461518        9.4897414948
  O        47.6769722841       16.3354049007        5.6533697443
  O        46.9248963618       18.2353176528        6.6627633832
  O        49.5687065920       18.3178322764        5.9820945065
  O        10.3187287317       15.1001438395        7.9971088353
  O        52.6706916746       21.0279962119        9.2418378388
  O        12.1468271203       20.8913726842        6.6732362944
  O        13.1048900002       18.6143080111        5.3261708310
  O        13.9555598779       16.9864436180        6.6652558479
  O        29.9967529703       14.4294814787       10.6607275818
  O        28.0706070606       14.6563528051        9.4835524008
  O        32.0663591891       16.8498924523        7.9931786376
  O        30.9723711175       20.9527577996       10.4018545464
  O        32.9480015543       20.5925201097        9.3287582989
  O        29.4568773476       17.0039250892        9.7417586936
  O        30.8469308409       20.8865641567        5.6591699346
  O        32.8664711364       20.5814002435        6.6639336570
  O        31.6042480491       18.2488965670        5.9175093822
  O        28.2696209227       18.6179605318        8.0716489056
  O        32.4845469405       14.2075680645        9.3204910683
  O        32.4476561120       14.1439979070        6.7489779229
  O        29.8704483681       14.3707018729        5.5026020332
  O        27.9654166910       14.5796566283        6.7366663163
  O        17.8891253922        1.9663942797       10.6628430070
  O        18.9560362765        3.5271234948        9.4081111457
  O        39.1685386490       34.1386215954        7.9971313679
  O        43.2802010188       33.0588692759       10.3316702332
  O        42.0343672911       31.5064510260        9.2415848417
  O        20.3171835525        1.0361585078        9.4803524701
  O        43.2760765745       33.1824477505        5.5748992005
  O        42.0051885999       31.5840858362        6.5830211161
  O        40.5790259733       33.7749134663        5.9359282491
  O        22.3670114389        1.3841406228        7.9979563125
  O        36.6727746638       35.0995949147        9.2333268920
  O        16.4456005674        0.0641308617        6.6682770106
  O        17.9363357384        2.0432014449        5.3263629828
  O        18.9187621761        3.5931552849        6.6658242573
  O        29.6609539945       18.8231424942        4.0756437632
  O        29.8670175820       18.9017240905       11.9112161570
  O        31.2589548723       16.3404382504        4.0850378285
  O        31.3035147374       16.4091958016       11.9110262460
  O        32.0264155915       16.6370085490        1.5123418176
  O        30.3345743988       15.9054795497       14.3215980312
  O        28.9456261472       18.3151747870       14.3407650635
  O        39.4569039349       35.2436873510        4.0020045180
  O        19.1409852903        0.0042906899       11.9905680988
  O        41.9694532506       35.1727269466        4.0871491796
  O        21.6913584344       -0.0690934215       11.8959261171
  O        51.3647817937       18.6143798631        4.0053209869
  O        10.7509436660       18.7472386321       11.9050126620
  O        50.0802115446       16.4128144282        4.0915797303
  O         9.5247509783       16.4830234415       11.9911606719
 Zr         9.2962358022       16.0527391288        6.1822170919
 Zr        49.8353657804       16.0069673568        9.7465896618
 Zr        22.0732644427        0.0289700973        6.1894191295
 Zr        42.4607297420       35.1529968394        9.8009459450
 Zr        29.5544453084       19.0653322939        6.2004354993
 Zr        29.6021290380       19.2644424705        9.8189737072
 Zr        11.0368232962       19.0523759865        9.8276371001
 Zr        11.0427695068       19.1552611217        6.2512878627
 Zr        31.5032699558       15.9861137951        9.8023146197
 Zr        31.2940980686       16.0359796629        6.1579888484
 Zr        18.6007825339       -0.0023327648        9.7635381982
 Zr        18.5064765379       -0.0083051341        6.2133864742
 Zr        12.3001606441       16.3232291102        7.9905538448
 Zr        48.6154591833       18.8330572590        8.0095486755
 Zr        20.3141485888        2.4723425127        7.9905754498
 Zr        40.6426566022       32.6863015387        7.9781047755
 Zr        28.2635445925       16.2847858852        8.0301345783
 Zr        32.6216073356       18.8208472420        8.0071229031
  H        29.4947403453       17.0622234353        1.3832682682
  H        29.0803123042       16.7728600406       10.6171318665
  H        30.3133959518       18.7930357902        1.4341120517
