     566
 i =      164, E =     -4712.1984339553
  C        11.8588635656       14.0535470558        5.7415318272
  C        12.4563292243       12.8905071386        5.0235134506
  C        11.7047621893       12.1718988945        4.0814749323
  C        12.2811150811       11.1097035276        3.3891093353
  C        13.6215759575       10.7395721585        3.6170880574
  C        14.3545349320       11.4427549666        4.5910194564
  C        13.7817035569       12.5077445258        5.2825622682
  C        14.2611557814        9.6489859428        2.8436190991
  C        14.2563931273        9.6569321185        1.4219120305
  C        13.7432155269       10.7590333549        0.6679781311
  C        49.1268773746       21.2331489498        5.8795881342
  C        48.5503342531       22.4011299624        5.1526014528
  C        49.3002322480       23.0681580137        4.1712755657
  C        48.7333650982       24.1073664611        3.4381430520
  C        47.4029741988       24.5094369319        3.6670509069
  C        46.6722018979       23.8608924937        4.6809318578
  C        47.2345692234       22.8159098462        5.4102176909
  C        46.7727636053       25.5871374352        2.8697771095
  C        46.7618467803       25.5575330736        1.4479980561
  C        47.2616207608       24.4423957061        0.7044772449
  C        14.8604445193        8.5706770335        0.7086062383
  C        14.8920205202        8.5970424010        3.5202299987
  C        49.1133651731       21.2035151308       10.1453273583
  C        48.5281637033       22.3648987426       10.8723953576
  C        49.2672049835       23.0252818934       11.8657014845
  C        48.6909056929       24.0598688921       12.5971163619
  C        47.3606612378       24.4570930666       12.3585355540
  C        46.6404974374       23.8125754793       11.3345646499
  C        47.2140043366       22.7766312333       10.6028202329
  C        46.7222054134       25.5320193064       13.1495882133
  C        46.7340095794       25.5283495981       14.5713104420
  C        47.2493333380       24.4291028864       15.3277054229
  C        40.6341585413       17.1131824210       15.3165254930
  C        40.6526211163       17.1495085985       12.5072538315
  C        11.8830458940       14.0865204572       10.2853146401
  C        12.4722846511       12.9106077207       10.9893536147
  C        11.7150588285       12.1780787210       11.9162555414
  C        12.2815456513       11.0956127155       12.5847197034
  C        13.6200552089       10.7211154657       12.3522253957
  C        14.3576162479       11.4358096724       11.3904169642
  C        13.7922683585       12.5169839910       10.7176740616
  C        14.2536929247        9.6244716370       13.1227336983
  C        14.2524958114        9.6445628305       14.5445879874
  C        13.7426439509       10.7534919826       15.2917186105
  C        22.5119302262        3.2455707283        5.7528479370
  C        23.2248084772        4.3532756009        5.0540129853
  C        24.2229798375        4.0780318097        4.1075698487
  C        24.8472540265        5.1206071928        3.4270526681
  C        24.4892476462        6.4614426664        3.6719638994
  C        23.5194331882        6.7281672234        4.6557017229
  C        22.8908673890        5.6875323350        5.3348122542
  C        25.0903595769        7.5715207343        2.8967257813
  C        25.0644031564        7.5641454945        1.4748997409
  C        24.3680178480        6.5611576768        0.7284623634
  C        38.2940891862       31.9252164776        5.8530194995
  C        37.5442704589       30.8361823871        5.1579387899
  C        36.5786344380       31.1428972964        4.1858319939
  C        35.9410449986       30.1257135271        3.4797963063
  C        36.2504750173       28.7718110576        3.7202930633
  C        37.1837227832       28.4730566709        4.7319936455
  C        37.8259907370       29.4893830389        5.4373385492
  C        35.6384338971       27.6844201085        2.9183961807
  C        35.6857260326       27.7011127406        1.4942732545
  C        36.4022798947       28.7005994314        0.7655095128
  C        25.6825457564        8.6371319315        0.7550260863
  C        25.6817388878        8.6497485090        3.5674257865
  C        38.3307823944       31.9596817898       10.1620493137
  C        37.6164396127       30.8872341155       10.9138088464
  C        36.6874764736       31.1965716424       11.9199621620
  C        36.0793143395       30.1801784992       12.6547594152
  C        36.3829446311       28.8253928588       12.4087813212
  C        37.2935313537       28.5264247219       11.3756500625
  C        37.9040363672       29.5392940897       10.6422617435
  C        35.7664811458       27.7268258831       13.1889049724
  C        35.7502936646       27.7232702098       14.6135371218
  C        36.4313153214       28.7127970082       15.3875985793
  C        46.1360226445       26.6209889044       15.2814720546
  C        46.0881054041       26.5803346805       12.4735732887
  C        22.4619020289        3.2572389191       10.2589356955
  C        23.1566158818        4.3667697013       10.9821587302
  C        24.1576598784        4.0821074111       11.9248079217
  C        24.7858036660        5.1127900495       12.6206428284
  C        24.4339528692        6.4592532122       12.3971833102
  C        23.4559834097        6.7370210035       11.4230335781
  C        22.8231680805        5.7066513559       10.7278103603
  C        25.0632277962        7.5594082547       13.1718116369
  C        25.0509366594        7.5572674745       14.5950566771
  C        24.3591300443        6.5592545322       15.3514935381
  C        26.6697878035       17.8781423904        5.7345160929
  C        25.3709882111       17.9741959697        5.0129945882
  C        25.1470264150       18.9311657062        4.0094577344
  C        23.9206228890       18.9803101288        3.3469683993
  C        22.8837910901       18.0732497527        3.6554203119
  C        23.1086399795       17.1418158327        4.6880057973
  C        24.3305613806       17.0898592103        5.3523829764
  C        21.6047508317       18.0561841502        2.9013871486
  C        21.5969825428       18.0006226862        1.4786377575
  C        22.7975370800       17.8465783094        0.7164732787
  C        34.4471033629       17.1881852765        5.9082710213
  C        35.7362092801       17.1400778926        5.1695125629
  C        35.9329901796       16.1819246532        4.1617707969
  C        37.1132264043       16.1693652884        3.4257751899
  C        38.1295735380       17.1118649598        3.6776535833
  C        37.9362221521       18.0481444341        4.7116821283
  C        36.7526549325       18.0682166086        5.4444120050
  C        39.3819801892       17.1211242561        2.8911431257
  C        39.3768349944       17.1344139450        1.4690481313
  C        38.1705497370       17.2618683947        0.7114506591
  C        20.3469508909       18.0049385085        0.7752315797
  C        20.3797107657       18.0611296198        3.5877556534
  C        34.4767986933       17.2427035322       10.1797998656
  C        35.7773327483       17.1676246085       10.8999304810
  C        35.9846549809       16.1877022820       11.8827171190
  C        37.1703347489       16.1657792675       12.6103679605
  C        38.1762557113       17.1230737065       12.3754811773
  C        37.9752738500       18.0772462274       11.3605159773
  C        36.7876706945       18.1046428229       10.6350666548
  C        39.4219445706       17.1376630941       13.1718100136
  C        39.3972766839       17.1435167490       14.5931071040
  C        38.1800815323       17.2645650382       15.3344427480
  C        35.1071325251       26.6454759961       15.3100073982
  C        35.1886203453       26.6529546230       12.4986972040
  C        26.5807898339       17.7830617647       10.3451400191
  C        25.2788921221       17.8383927414       11.0618372035
  C        24.9963053226       18.8728724121       11.9680822310
  C        23.7732958548       18.9070223434       12.6323111121
  C        22.8004285484       17.9105689215       12.4126428504
  C        23.0781951294       16.8995435625       11.4742090257
  C        24.3016978646       16.8608784468       10.8096869445
  C        21.5327971645       17.9067230888       13.1806044572
  C        21.5606694483       17.9253233219       14.6019923287
  C        22.7802934697       17.8125291795       15.3406651528
  C        14.0476166919       17.8274053069       10.2913092582
  C        15.3512482446       17.8822521747       11.0211658777
  C        15.6104218220       18.8897569480       11.9639078828
  C        16.8189502232       18.9120398173       12.6581650746
  C        17.8047687913       17.9292024964       12.4338786828
  C        17.5490227695       16.9437186906       11.4611282488
  C        16.3402161454       16.9176256627       10.7675020035
  C        19.0762532539       17.9193307859       13.2009739601
  C        19.0796992954       17.9430760940       14.6246664638
  C        17.8760881890       17.8571611814       15.3923244202
  C        46.8064545421       17.2178295315       10.1580001707
  C        45.5175615312       17.1545308950       10.9030294962
  C        45.3119349461       16.1731058323       11.8848625252
  C        44.1311144827       16.1538925618       12.6216578937
  C        43.1275279948       17.1164175851       12.3981039256
  C        43.3303746369       18.0773759692       11.3893221880
  C        44.5116572272       18.1002820568       10.6531952560
  C        41.8757564094       17.1275807838       13.1867166014
  C        41.8812312362       17.1223950033       14.6085168218
  C        43.0902825120       17.2107847412       15.3673178291
  C        20.3283569672       17.9677639705       15.3300256451
  C        20.2996458251       17.8834425234       12.5160540188
  C        46.7859043921       17.2306987566        5.8895958230
  C        45.4833878517       17.1234022430        5.1745163938
  C        45.2652852723       16.1219776197        4.2162243679
  C        44.0781059080       16.0939767084        3.4889981414
  C        43.0802584379       17.0643887381        3.7034694316
  C        43.2884655776       18.0353312344        4.7007611431
  C        44.4766654545       18.0696324830        5.4231758094
  C        41.8353473728       17.0870803378        2.9056241601
  C        41.8607466546       17.1003136215        1.4845336008
  C        43.0805199315       17.1980325119        0.7442479231
  C        46.1538050997       26.6374013580        0.7262440738
  C        46.1627075484       26.6562241941        3.5359020467
  C        14.0519530737       17.8396926695        5.7117469344
  C        15.3796385408       17.9364708533        5.0301162815
  C        15.6439119470       18.9623259296        4.1093588946
  C        16.8750754847       19.0237839686        3.4587229752
  C        17.8743896594       18.0593394901        3.7010554115
  C        17.6171767653       17.0630263678        4.6612565158
  C        16.3875548882       17.0010970560        5.3158327797
  C        19.1429776261       18.0525421296        2.9276697509
  C        19.1141196221       18.0109698148        1.5049525018
  C        17.8932782603       17.8871900686        0.7689179663
  C        28.8082882361       14.0839127786       10.3619510274
  C        28.1988874375       12.9160225352       11.0579308034
  C        28.9113797695       12.2008447863       12.0323436386
  C        28.3103985737       11.1325058798       12.6936856486
  C        26.9830284260       10.7533951863       12.4055465842
  C        26.2937509382       11.4494025256       11.3957449616
  C        26.8911745245       12.5186714079       10.7337430553
  C        26.3113391044        9.6763861909       13.1692499579
  C        26.2887199970        9.7087216446       14.5906192038
  C        26.7771177250       10.8284222654       15.3361182869
  C        32.1870168198       21.2353048938       10.1465314301
  C        32.7741896881       22.3995943044       10.8661916848
  C        32.0245680169       23.0848737495       11.8365351804
  C        32.5958258508       24.1234019107       12.5651025486
  C        33.9325241362       24.5123786021       12.3448094478
  C        34.6627056698       23.8488358076       11.3393153789
  C        34.0959052239       22.8022241594       10.6149069305
  C        34.5590203781       25.5859895328       13.1497379955
  C        34.5290007046       25.5597535185       14.5730571308
  C        34.0202289205       24.4421218676       15.3040288692
  C        25.6813216395        8.6293034753       15.3096546973
  C        25.6808075693        8.6208607703       12.4961395345
  C        32.0357052898       21.1384720214        5.7893143655
  C        32.5880217400       22.3162487702        5.0707182906
  C        31.8835253948       22.9424331483        4.0285569257
  C        32.4565606420       24.0035102228        3.3302470189
  C        33.7511152487       24.4703730760        3.6440585196
  C        34.4293700270       23.8617433260        4.7200736063
  C        33.8621347301       22.8011173909        5.4180328627
  C        34.4048301614       25.5554770560        2.8764271063
  C        34.4513625989       25.5439200941        1.4518437039
  C        33.9838781229       24.4344175768        0.6813420838
  C        40.6234501548       17.1051516986        0.7609276052
  C        40.6052788931       17.1158237733        3.5706981885
  C        28.7210596134       14.0937888209        5.8160954076
  C        28.1012698114       12.9514044573        5.0856798844
  C        28.8273608651       12.2760016954        4.0918940101
  C        28.2483475963       11.2183455824        3.3961434157
  C        26.9260162217       10.8096363979        3.6646747944
  C        26.2174556594       11.4741081647        4.6839678009
  C        26.7949927161       12.5323583414        5.3837740987
  C        26.2873070599        9.7173795538        2.8910752792
  C        26.2773823632        9.7298502327        1.4683360367
  C        26.7687616877       10.8404016910        0.7123348775
  C        18.1355025223        3.1806728942       10.3171290189
  C        17.4062131133        4.2780660582       11.0158522158
  C        16.3902791519        3.9997477328       11.9431112323
  C        15.7425408292        5.0397577301       12.6065971399
  C        16.0946556525        6.3834399382       12.3670975113
  C        17.0843276918        6.6529170922       11.4036381281
  C        17.7334429091        5.6155438794       10.7386157566
  C        15.4702812286        7.4911817432       13.1301071132
  C        15.4856572969        7.4906361601       14.5518276878
  C        16.1872763738        6.4970516138       15.3049820056
  C        42.9456900668       31.8595886466       10.0727698039
  C        43.6461405206       30.7718787192       10.8167933757
  C        44.5917744267       31.0932571999       11.8027340307
  C        45.1975694513       30.0877600585       12.5504137618
  C        44.8711200146       28.7346871275       12.3356887522
  C        43.9451342111       28.4202896749       11.3226416232
  C        43.3362070846       29.4253913124       10.5746099434
  C        45.4888661352       27.6554353059       13.1388547669
  C        45.4931619628       27.6810550190       14.5605756894
  C        44.8060650261       28.6890705626       15.3072156038
  C        14.8565963041        8.5631073337       15.2641606341
  C        14.8748916020        8.5628640956       12.4514982992
  C        42.9463822869       31.9616522114        5.8090287578
  C        43.6916795145       30.8854889307        5.0954740654
  C        44.6566492544       31.1914442537        4.1235690821
  C        45.2782630865       30.1718972701        3.4058336234
  C        44.9542004061       28.8215888283        3.6430971524
  C        44.0202111201       28.5238699215        4.6533816623
  C        43.3918210146       29.5406017125        5.3655297996
  C        45.5633899796       27.7242149001        2.8578668291
  C        45.5337797688       27.7175286739        1.4365469590
  C        44.8273919727       28.7077160246        0.6836185312
  C        35.0705939588       26.6360686514        0.7563357935
  C        35.0150433575       26.6124395863        3.5680461357
  C        18.1488432423        3.2468344064        5.7066637969
  C        17.4303295078        4.3438487352        4.9972361015
  C        16.4148104601        4.0526365024        4.0740187699
  C        15.7665164357        5.0832988642        3.3986182009
  C        16.1215413045        6.4284744803        3.6210195030
  C        17.1133708518        6.7118136649        4.5778034781
  C        17.7610208631        5.6828567321        5.2575695917
  C        15.4909463859        7.5241894456        2.8486162636
  C        15.4967636924        7.5076139628        1.4274757983
  C        16.1935683073        6.5059262125        0.6807962418
  H        10.6727312526       12.4662245180        3.9042059402
  H        11.6949098881       10.5514663105        2.6623159030
  H        15.3914488467       11.1678858238        4.7730224497
  H        14.3511023850       13.0707146823        6.0182407271
  H        13.3761588990       11.6311584277        1.2012545769
  H        50.3227911943       22.7478248448        3.9862354650
  H        49.3197371698       24.6223699212        2.6803031826
  H        45.6428489237       24.1619736035        4.8643842767
  H        46.6635843330       22.2909714013        6.1725380349
  H        47.6299458384       23.5758951599        1.2461051378
  H        14.8724291917        8.5882332971        4.6085376929
  H        50.2870874060       22.7021250753       12.0609390344
  H        49.2691494556       24.5750425528       13.3609181654
  H        45.6112648595       24.1101797999       11.1451371984
  H        46.6532654751       22.2548259218        9.8309579592
  H        47.6078744693       23.5518599159       14.7968572232
  H        40.6591610960       17.1203174717       11.4193674447
  H        48.6871987787       14.0947648496        7.8001336640
  H        10.6818263225       12.4676557826       12.0942123322
  H        11.6899004589       10.5257383385       13.2979537881
  H        15.3927081960       11.1571604884       11.2037251723
  H        14.3643208645       13.0856096017        9.9883350429
  H        13.3757910553       11.6221219622       14.7531327911
  H        47.9302663821       14.2184169334        9.7106575263
  H        47.7800594734       14.3735937129        6.4953744204
  H        49.0840887432       18.5523991316       10.8673130034
  H        10.4164323352       14.1343445221        7.9985243105
  H        24.4875864476        3.0406185209        3.9151965963
  H        25.6214172792        4.9060154789        2.6935246563
  H        23.2349588095        7.7598772396        4.8518666159
  H        22.1200773616        5.8849930449        6.0757759240
  H        23.8090591453        5.8025258635        1.2685323807
  H        36.3525689845       32.1872811191        3.9838155318
  H        35.1953722054       30.3722951903        2.7270649700
  H        37.4335154993       27.4324612424        4.9289466049
  H        38.5721132190       29.2608905462        6.1949353076
  H        36.9613919358       29.4501300099        1.3178915317
  H        25.7177707168        8.6316588909        4.6552069280
  H        36.4607014631       32.2408933824       12.1226116069
  H        35.3523309797       30.4290603530       13.4246969951
  H        37.5443559665       27.4862566555       11.1783139056
  H        38.6272996312       29.3099101311        9.8634160072
  H        37.0134253320       29.4711698715       14.8718852586
  H        46.1093961804       26.5877685443       11.3855345463
  H        44.6681826671       35.1161593447        7.8139443278
  H        24.4347002563        3.0440157666       12.0942047295
  H        25.5652989378        4.8832336726       13.3440467159
  H        23.1715909242        7.7713489266       11.2405063369
  H        22.0526062383        5.9200896315        9.9905561548
  H        23.7927400332        5.7998799684       14.8202230508
  H        44.9535026872       34.3903229476        9.6952548901
  H        44.9012425657       34.2066813502        6.4906219643
  H        40.6655215828       33.2086110373       10.8528548435
  H        23.1503377159        1.9580663013        8.0053675187
  H        25.9446757001       19.6268013983        3.7579250824
  H        23.7537164104       19.7309644129        2.5775221228
  H        22.3252336860       16.4289805036        4.9371083465
  H        24.5098793006       16.3532718473        6.1315264829
  H        23.7394112812       17.7205847249        1.2423279508
  H        35.1447742714       15.4601750586        3.9614765199
  H        37.2638632607       15.4203235899        2.6515789319
  H        38.7130614516       18.7836592714        4.9099754553
  H        36.5877104960       18.8071816186        6.2249302030
  H        37.2309003399       17.3899037206        1.2411423320
  H        20.3897903796       18.1187445533        4.6748976085
  H        35.1975038403       15.4623736956       12.0741072051
  H        37.3303283892       15.4040384269       13.3702017357
  H        38.7465915997       18.8219105829       11.1752981020
  H        36.6113841761       18.8591866703        9.8722448712
  H        37.2478131140       17.3937137074       14.7921774280
  H        35.1790000554       26.6777299208       11.4105869097
  H        28.5054114353       21.1151340775        7.8726443762
  H        25.7379940745       19.6521002809       12.1284119745
  H        23.5546042946       19.7121013016       13.3304904907
  H        22.3375289962       16.1217539065       11.2999299171
  H        24.5292932639       16.0686500160       10.1004045281
  H        23.7089243087       17.6622739349       14.7983151727
  H        28.9672934773       21.7279120632        9.7803104186
  H        29.1181246559       21.7605162101        6.5153117912
  H        32.1464236374       18.5666537497       10.9571326317
  H        27.4110983636       19.0983541680        8.0750155599
  H        14.8544576080       19.6525673178       12.1367081748
  H        17.0147272432       19.7017354980       13.3803923270
  H        18.2970905851       16.1749336671       11.2783572902
  H        16.1339183216       16.1438293172       10.0317579528
  H        16.9314223139       17.7326225703       14.8709751821
  H        46.0945060698       15.4394948129       12.0634452754
  H        43.9708688680       15.3855155066       13.3747632805
  H        42.5628513794       18.8282884043       11.2138201209
  H        44.6859603863       18.8561051319        9.8910188552
  H        44.0325186545       17.3215932759       14.8383442315
  H        20.2904678394       17.8918903157       11.4275043775
  H        46.0419502605       15.3806817698        4.0426097267
  H        43.9110612978       15.3173422632        2.7458199892
  H        42.5224846423       18.7887756273        4.8720042246
  H        44.6596323814       18.8381267421        6.1701465658
  H        44.0153707028       17.2978731653        1.2881153669
  H        46.1994024221       26.6827703862        4.6233534275
  H        52.7408335588       21.0625526810        8.1946498940
  H        14.8731732747       19.7058566661        3.9183770703
  H        17.0737406305       19.8224292980        2.7470996238
  H        18.3775091715       16.3100233240        4.8585407186
  H        16.1779829354       16.2171762934        6.0398097081
  H        16.9613916088       17.7855925535        1.3170692266
  H        52.3212083426       21.6728060325        6.2947263917
  H        52.0122453122       21.7010357705        9.4958057204
  H        49.0675256469       18.6076919946        5.2041861527
  H        13.2475949586       19.0170118524        7.9784706483
  H        29.9328348217       12.4976475777       12.2598710106
  H        28.8655295893       10.5783442141       13.4474118606
  H        25.2687309423       11.1674769864       11.1639197248
  H        26.3540770891       13.0753551827        9.9698229333
  H        27.1325509406       11.7009785550       14.7963736568
  H        30.9959610146       22.7817197171       12.0152696162
  H        32.0088989772       24.6496523851       13.3146527587
  H        35.6965862054       24.1372524415       11.1607466842
  H        34.6699194878       22.2657480659        9.8629243573
  H        33.6855934728       23.5663090794       14.7556031962
  H        25.7172260697        8.5974175836       11.4083810325
  H        30.8929185894       22.5771018501        3.7666614267
  H        31.8995102448       24.4861966651        2.5303813110
  H        35.4295951017       24.2054525342        4.9754513249
  H        34.3999403926       22.3138486558        6.2275830541
  H        33.6231414116       23.5509295889        1.1998542391
  H        40.5985368333       17.0782823230        4.6583496463
  H        32.5132644978       14.1457733581        8.2441511900
  H        29.8443324269       12.5983895962        3.8802173125
  H        28.8206484215       10.6915960972        2.6357115028
  H        25.1941535271       11.1731193855        4.8988662355
  H        26.2415945885       13.0598751056        6.1570522158
  H        27.1158600122       11.7226295816        1.2424919172
  H        33.3016210013       14.1816299419        6.4500635268
  H        33.4116868192       14.3913756310        9.6019398622
  H        32.0595111971       18.4152847318        5.0550699606
  H        30.2216515439       14.1939107756        8.0786946608
  H        16.1181203779        2.9632369548       12.1293588560
  H        14.9529390341        4.8203887888       13.3220957898
  H        17.3669912754        7.6857653639       11.2107310687
  H        18.5157238892        5.8180898963       10.0109946545
  H        16.7538165589        5.7397234764       14.7714408999
  H        44.8280464458       32.1403611044       11.9768125614
  H        45.9374773431       30.3415986598       13.3062890358
  H        43.6823067526       27.3782255897       11.1527026087
  H        42.5994211900       29.1900519422        9.8101004982
  H        44.2306064183       29.4367668151       14.7689180253
  H        14.8510515795        8.5459413684       11.3632809157
  H        44.9003919267       32.2341329260        3.9324015471
  H        46.0253995535       30.4131817822        2.6528410554
  H        43.7628178843       27.4841658078        4.8445065516
  H        42.6448076238       29.3178040454        6.1234762506
  H        44.2688419173       29.4705557043        1.2182331752
  H        34.9570498833       26.6268938583        4.6549462820
  H        36.6053869311       35.1336966912        8.1808623540
  H        16.1435072880        3.0130661891        3.9045772631
  H        14.9739601129        4.8564871630        2.6887777489
  H        17.3973065709        7.7472316418        4.7542954432
  H        18.5442600068        5.8931975338        5.9819784091
  H        16.7650209301        5.7557173511        1.2192675926
  H        36.2799629764       34.4810400055        6.2733998094
  H        36.3825599473       34.2082344231        9.4996579621
  H        40.5774097891       33.2007082535        5.1545900948
  H        17.4714908567        1.9463755016        7.9740606739
  H        28.5003165974       18.7645190852       12.0149431918
  H        32.0398653822       15.9116861193        3.6135490978
  H        31.4063911314       15.5092888133       12.4908002404
  H        28.3102786320       18.1484043910       14.6663574075
  H        29.4553992384       15.3649868804       14.5506972714
  H        32.5655969325       17.2721537215        1.4666926086
  H        18.8540517301        0.8691384780       12.3351641885
  H        40.5281548686       35.2289110106        3.9522063562
  H        42.3233189889       34.4181746532        3.5911379797
  H        22.0878576503        0.6924203058       12.3510176691
  H        11.5970985861       18.7131727973       12.3824195121
  H        52.2647881998       18.4304139088        3.6771334829
  H        49.2547357352       16.4772273026        3.5849035633
  H        10.1504507493       15.7981320939       12.2928761775
  H        50.8496716987       17.6922905758        3.9543747448
  H        10.0462719736       17.3943504015       12.0520651714
  H        20.2153258545        0.0022390412       12.0419358497
  H        39.1838164532       36.1244977182        3.6866633456
 Ni        30.4791261495       17.2623019201        2.6643607117
 Ni        31.0743485974       16.1789689026        0.0794142366
 Ni        29.7163898495       17.9439924509        0.5802532124
 Ni        30.0597210522       17.2098642219       13.1672209695
  O        10.6500860161       14.3651037926        5.4858909240
  O        12.6133244767       14.6577564990        6.5839211381
  O        49.1481242608       16.8459339164        7.9897562304
  O        50.3503684692       20.9354923726        5.6480225347
  O        48.3486112917       20.5933201727        6.6659140319
  O        11.0519400927       17.0537485095        6.5008267706
  O        50.3212703821       20.8815809970       10.4067183978
  O        48.3468833295       20.5867632397        9.3271302433
  O        49.5440240548       18.2484096582       10.0681496172
  O        12.3594859788       18.6243895624        7.9995289330
  O        48.6932917994       14.1485194030        6.7513503243
  O         8.2100013973       14.2102576282        9.3224171683
  O        10.7354968369       14.5068124018       10.6642637171
  O        12.5719104903       14.5830045266        9.3283540271
  O        22.8448829820        2.0443866940        5.4868775751
  O        21.6054869003        3.5924141960        6.5900204230
  O        42.0577039706       34.1370877614        7.9789118575
  O        37.9809337488       33.1349113742        5.5717758048
  O        39.2164771631       31.5742603851        6.6647654354
  O        20.3083401138        1.0394381559        6.5020707768
  O        38.0241812059       33.1845130397       10.4159036859
  O        39.2182234210       31.5827976496        9.3275840930
  O        40.6521802137       33.7690972966       10.0600704829
  O        18.2562413900        1.3752975675        7.9967948774
  O        44.6221688226       35.1005755145        6.7587431090
  O        24.2053324285        0.0000531695        9.3207910352
  O        22.7534330975        2.0588151986       10.5845388856
  O        21.6250495634        3.5969048254        9.3440380314
  O        27.6274344470       18.6853567822        5.4083466195
  O        26.7407070890       17.0013663417        6.6615053305
  O        30.6653011143       19.4140176339        8.0039009674
  O        33.5916552353       16.2734059710        5.6683733255
  O        34.2777709017       18.1695526524        6.7251120589
  O        29.5749634168       17.0603739394        6.5778112486
  O        33.6150557582       16.3297829008       10.4068595854
  O        34.3040454957       18.2481873992        9.4030537347
  O        31.6444210105       18.3205245326       10.1624306170
  O        30.3209359156       15.1602280526        8.0815005628
  O        28.5528723682       21.0335144033        6.8309582790
  O        28.5139987235       20.9535939594        9.4054799175
  O        27.5039164655       18.6174750860       10.6798789659
  O        26.6905651420       16.9272225095        9.4087239867
  O        13.1502081119       18.6927017769       10.5879144770
  O        13.9205848322       16.9162839584        9.4058862937
  O        50.5963889476       19.3501722605        8.0203082544
  O        47.6848696762       16.3263479575       10.4168105353
  O        46.9522575231       18.1756818226        9.3245173589
  O        11.0705630745       17.0151336144        9.4894569399
  O        47.6767681350       16.3353909172        5.6534555741
  O        46.9273923258       18.2357089331        6.6645562367
  O        49.5688217906       18.3176891309        5.9823244270
  O        10.3188591342       15.1001812910        7.9970256362
  O        52.6707733671       21.0278130044        9.2418411358
  O        12.1468348946       20.8911528860        6.6732096633
  O        13.1096059231       18.6141738512        5.3252877354
  O        13.9606268135       16.9886487265        6.6627171629
  O        29.9980583417       14.4325458714       10.6623813239
  O        28.0760688152       14.6614615444        9.4832765638
  O        32.1031226781       16.9075608626        8.0684461878
  O        30.9637512931       20.9370053029       10.4123481792
  O        32.9431659338       20.6003804137        9.3334896322
  O        29.5668187673       17.0916028977        9.5726004498
  O        30.8379000049       20.7411938611        5.4890787350
  O        32.7880597862       20.5879730853        6.6580726848
  O        31.6631581015       18.2463408753        5.9283040078
  O        28.2914050595       18.6866263977        8.0665728297
  O        32.4934594455       14.2144371992        9.3256581832
  O        32.4065765948       14.2148164921        6.8269445360
  O        29.9040720382       14.4353684069        5.5003889134
  O        28.0072520043       14.6487299660        6.7385277729
  O        17.8891461397        1.9664791664       10.6628142550
  O        18.9562245903        3.5270776154        9.4079708322
  O        39.1685291317       34.1384450465        7.9970675342
  O        43.2802091104       33.0589660016       10.3316424405
  O        42.0344362408       31.5064367465        9.2415438622
  O        20.3176123562        1.0365926071        9.4803550028
  O        43.2761320500       33.1825844892        5.5748973717
  O        42.0052494384       31.5840976010        6.5829777291
  O        40.5788431994       33.7746657249        5.9357979643
  O        22.3673285244        1.3846790066        7.9979904294
  O        36.6728029399       35.0995315005        9.2334569819
  O        16.4456579392        0.0639352474        6.6681280548
  O        17.9364757332        2.0433751836        5.3264030086
  O        18.9190790469        3.5930793137        6.6660638717
  O        29.4771749428       18.9671190666       12.1544212826
  O        31.3420940326       16.3284661556        4.1591039524
  O        31.3346640633       16.3440419266       11.9881103159
  O        32.0180537617       16.4864490637        1.6531560884
  O        30.3418300403       15.7489610720       14.4154704855
  O        29.2725511320       18.3138455328       14.6562570829
  O        39.4568440786       35.2437612252        4.0019898171
  O        19.1418885529        0.0046278455       11.9905262119
  O        41.9695311867       35.1726798223        4.0872433597
  O        21.6914565833       -0.0693001901       11.8958417903
  O        51.3651724982       18.6141262429        4.0054512464
  O        10.7513289606       18.7471890571       11.9048126005
  O        50.0794002773       16.4128586996        4.0917883344
  O         9.5247051286       16.4830204504       11.9912004106
 Zr         9.2967117470       16.0525654360        6.1825784706
 Zr        49.8366744787       16.0064397647        9.7463210551
 Zr        22.0730797644        0.0298708186        6.1890618547
 Zr        42.4607519563       35.1534416746        9.8007499513
 Zr        29.6126461768       19.0572008246        6.2766079693
 Zr        29.6340845752       19.2025464685        9.7491275078
 Zr        11.0380374862       19.0515286832        9.8275395365
 Zr        11.0439270201       19.1545079116        6.2508290847
 Zr        31.3510791720       16.0887648786        9.8699639409
 Zr        31.3907532176       15.9940898538        6.2382578858
 Zr        18.6010249976       -0.0025003386        9.7636718700
 Zr        18.5066021064       -0.0087233287        6.2133770776
 Zr        12.3029312382       16.3236550195        7.9894809723
 Zr        48.6163777016       18.8332090513        8.0101975419
 Zr        20.3157464726        2.4733122946        7.9909429900
 Zr        40.6421013738       32.6860422257        7.9778098578
 Zr        28.3425331098       16.3249529761        8.0721839646
 Zr        32.6768689327       18.8210291370        8.0214139612
  H        29.4146578757       18.3330412151        2.1618511974
  H        29.5417467744       19.3914452361       13.0517840641
