     576
 i =      124, E =     -4780.0430043251
  C        11.8589258870       14.0535347750        5.7415151353
  C        12.4564842042       12.8906417429        5.0232073223
  C        11.7046554306       12.1713801029        4.0819079521
  C        12.2810700870       11.1091894336        3.3895718713
  C        13.6218039821       10.7397762217        3.6169869400
  C        14.3551566372       11.4437362830        4.5900216773
  C        13.7822262949       12.5087096091        5.2815105283
  C        14.2613283036        9.6490907562        2.8436044244
  C        14.2564808584        9.6569077808        1.4219056751
  C        13.7431736825       10.7589820332        0.6680256224
  C        49.1269338410       21.2331690002        5.8797542495
  C        48.5501394535       22.4012005836        5.1526251369
  C        49.3001030891       23.0684071069        4.1715311611
  C        48.7331703029       24.1075629362        3.4383262605
  C        47.4027064681       24.5093093984        3.6671111675
  C        46.6718326856       23.8605723008        4.6807573519
  C        47.2342945885       22.8156592671        5.4100962272
  C        46.7723964792       25.5869966601        2.8698706712
  C        46.7611181318       25.5573005489        1.4481081403
  C        47.2609432424       24.4421557961        0.7046134023
  C        14.8604389145        8.5705878317        0.7086344802
  C        14.8922847687        8.5972503931        3.5202454873
  C        49.1131824022       21.2034060669       10.1454149143
  C        48.5277168397       22.3647969402       10.8726801793
  C        49.2669364773       23.0255232439       11.8655679852
  C        48.6905918201       24.0600887262       12.5970348365
  C        47.3601857760       24.4568241418       12.3587805038
  C        46.6397707926       23.8118888207       11.3352890225
  C        47.2133401949       22.7759680074       10.6035221694
  C        46.7216962028       25.5318041024       13.1497797753
  C        46.7332459258       25.5281032128       14.5714860745
  C        47.2486212425       24.4288456567       15.3278500672
  C        40.6331650853       17.1072295822       15.3190957504
  C        40.6489294061       17.1399328471       12.5101270763
  C        11.8831191307       14.0865678112       10.2854833142
  C        12.4725191336       12.9108593830       10.9898141551
  C        11.7148806520       12.1773810304       11.9156036670
  C        12.2815037154       11.0949368039       12.5840093992
  C        13.6204635021       10.7215406298       12.3524830854
  C        14.3586209211       11.4374538488       11.3920928826
  C        13.7931473444       12.5186009470       10.7193944821
  C        14.2540241578        9.6247263481       13.1228543432
  C        14.2526218747        9.6445830684       14.5446943963
  C        13.7426298754       10.7534732710       15.2917717487
  C        22.5101966048        3.2459280131        5.7516315075
  C        23.2181757536        4.3544892376        5.0502219949
  C        24.2167447951        4.0817655665        4.1035205751
  C        24.8365009613        5.1260016989        3.4216424813
  C        24.4731446595        6.4657803946        3.6649661758
  C        23.5023503794        6.7299684704        4.6483706591
  C        22.8785565201        5.6877746079        5.3291609017
  C        25.0733407079        7.5764129758        2.8903747211
  C        25.0573439392        7.5651091677        1.4684832906
  C        24.3636783037        6.5614387029        0.7202683614
  C        38.2992748422       31.9291110812        5.8518646246
  C        37.5594756965       30.8405847084        5.1487911222
  C        36.5928472015       31.1483428464        4.1790851334
  C        35.9637941707       30.1309521688        3.4668558466
  C        36.2865860099       28.7800619862        3.7015780319
  C        37.2232759878       28.4795098232        4.7083844557
  C        37.8561079892       29.4959958114        5.4200934881
  C        35.6750979812       27.6929597735        2.9031247347
  C        35.7096960533       27.7098350807        1.4814259197
  C        36.4237599531       28.7091785833        0.7476731262
  C        25.6827746607        8.6346411522        0.7496821980
  C        25.6567373413        8.6584799903        3.5623788044
  C        38.3302019228       31.9614986267       10.1596639847
  C        37.6112409291       30.8894679708       10.9088184701
  C        36.6786822955       31.2018731456       11.9100160433
  C        36.0658570361       30.1868230612       12.6427513931
  C        36.3705473109       28.8326668782       12.3983388455
  C        37.2841014510       28.5300138419       11.3698850548
  C        37.8988995482       29.5417916529       10.6383906367
  C        35.7522218835       27.7365001105       13.1806423824
  C        35.7491707773       27.7321099286       14.6031889487
  C        36.4415290666       28.7204705868       15.3710291587
  C        46.1352707060       26.6207616172       15.2816245697
  C        46.0878919891       26.5802509332       12.4737316419
  C        22.4629486585        3.2573235682       10.2582700689
  C        23.1599780814        4.3662444270       10.9792870950
  C        24.1632484225        4.0807610640       11.9193612214
  C        24.7936841070        5.1110645318       12.6134886157
  C        24.4418099899        6.4576729275       12.3910202499
  C        23.4619318922        6.7362899369       11.4191261585
  C        22.8268486889        5.7063288980       10.7254356462
  C        25.0724222685        7.5567148094       13.1658738135
  C        25.0576241228        7.5541296927       14.5887983325
  C        24.3609894824        6.5580154691       15.3433938247
  C        26.6316581224       17.8661782509        5.7505313558
  C        25.3260978013       17.9252947597        5.0263037673
  C        25.0805276870       18.9074458246        4.0543069353
  C        23.8613663596       18.9379782990        3.3788794959
  C        22.8552446533       17.9878316994        3.6505136012
  C        23.0996398466       17.0289969469        4.6516902566
  C        24.3176115480       16.9954333517        5.3276140809
  C        21.5794227280       17.9728093519        2.8916148423
  C        21.5772418323       17.9348205885        1.4695443980
  C        22.7810143162       17.7945691132        0.7090294453
  C        34.4751338290       17.2502774020        5.9598282647
  C        35.7625154719       17.1847190331        5.2095698013
  C        35.9540024506       16.2009798603        4.2268474739
  C        37.1252905277       16.1766352497        3.4750865462
  C        38.1363945224       17.1333053512        3.6887705465
  C        37.9477449317       18.0973702232        4.6973697003
  C        36.7731319404       18.1285129452        5.4449166072
  C        39.3856718782       17.1284892920        2.8951860816
  C        39.3781265961       17.1300515359        1.4736981349
  C        38.1694608710       17.2426752423        0.7171831199
  C        20.3296792413       17.9503665281        0.7631963156
  C        20.3553906983       17.9803354350        3.5761166393
  C        34.4710341699       17.2412798058       10.1860167380
  C        35.7719549107       17.1628140193       10.9087050832
  C        35.9797248121       16.1793105759       11.8872347253
  C        37.1666190283       16.1537726758       12.6133881790
  C        38.1721521867       17.1117834937       12.3810195714
  C        37.9701553890       18.0705751823       11.3708215466
  C        36.7817454907       18.1007535650       10.6467385528
  C        39.4187379843       17.1252647920       13.1760627144
  C        39.3954255310       17.1308741936       14.5971610742
  C        38.1777427307       17.2424102014       15.3402269039
  C        35.1064446891       26.6576289100       15.3039623049
  C        35.1630845025       26.6667490942       12.4944043018
  C        26.5674311855       17.8285913394       10.3250018687
  C        25.2532531044       17.8741577179       11.0288988539
  C        24.9871262062       18.8793363792       11.9708284478
  C        23.7691359766       18.9030023931       12.6439073157
  C        22.7878299554       17.9219796547       12.3979895807
  C        23.0479412271       16.9419467611       11.4230321015
  C        24.2670229374       16.9156289463       10.7486283491
  C        21.5244146509       17.9037157579       13.1710226736
  C        21.5490893400       17.8984993754       14.5924011157
  C        22.7676133494       17.7778851466       15.3329131734
  C        14.0458502854       17.8290792750       10.2882558229
  C        15.3494323196       17.8865864543       11.0131410915
  C        15.6057470885       18.8912464197       11.9591962635
  C        16.8144385831       18.9126098532       12.6520534393
  C        17.8002291275       17.9320681770       12.4207330596
  C        17.5486334630       16.9516419339       11.4424631297
  C        16.3395051803       16.9257643798       10.7510208945
  C        19.0689204157       17.9157983466       13.1889730770
  C        19.0680841925       17.9191292590       14.6113776473
  C        17.8617282707       17.8256744729       15.3744474362
  C        46.8058078668       17.2178439950       10.1581951291
  C        45.5161703441       17.1538590371       10.9034613691
  C        45.3118732001       16.1737743056       11.8869218172
  C        44.1307754343       16.1533401777       12.6235758573
  C        43.1249877499       17.1132532807       12.3985074419
  C        43.3263747263       18.0727717019       11.3880522013
  C        44.5080860821       18.0969278433       10.6521377229
  C        41.8729897881       17.1226800729       13.1879901327
  C        41.8795621699       17.1200865599       14.6096678134
  C        43.0893361250       17.2140100283       15.3669109674
  C        20.3152325800       17.9315032791       15.3184182062
  C        20.2921882806       17.8920837896       12.5053813908
  C        46.7873290674       17.2313222315        5.8896229490
  C        45.4854074893       17.1263936315        5.1735927153
  C        45.2668171548       16.1256351933        4.2149843361
  C        44.0799771340       16.0996716482        3.4873726789
  C        43.0839287746       17.0716366010        3.7021862568
  C        43.2928789800       18.0424762330        4.6992023799
  C        44.4806772592       18.0746150779        5.4220654477
  C        41.8385970104       17.0938605995        2.9057886581
  C        41.8621233162       17.1035126497        1.4852367648
  C        43.0812019329       17.2033598174        0.7435678975
  C        46.1530947179       26.6372001889        0.7263868906
  C        46.1626502164       26.6562144970        3.5360192612
  C        14.0467050356       17.8342675730        5.7091397235
  C        15.3684342577       17.9160263985        5.0198722484
  C        15.6358952663       18.9336764766        4.0916100695
  C        16.8643621425       18.9793031806        3.4359857878
  C        17.8544344150       18.0068020259        3.6825147608
  C        17.5938563518       17.0184306138        4.6494107295
  C        16.3671926271       16.9720917353        5.3084932977
  C        19.1214138687       17.9879405124        2.9114953635
  C        19.0954164394       17.9553438105        1.4899120773
  C        17.8750752555       17.8416453446        0.7507278257
  C        28.8097541369       14.0882432148       10.3585426676
  C        28.2016756323       12.9182975138       11.0567493666
  C        28.9257206708       12.1872142608       12.0102445871
  C        28.3281638653       11.1163047723       12.6714142348
  C        26.9934160430       10.7508838332       12.4019478980
  C        26.2912499361       11.4636433141       11.4132273362
  C        26.8853510114       12.5356934407       10.7522307274
  C        26.3247006912        9.6710370189       13.1653539918
  C        26.3041060016        9.7005917025       14.5866397804
  C        26.8035783833       10.8149604828       15.3328960072
  C        32.1750572817       21.2396238090       10.1535650208
  C        32.7655912496       22.4083417223       10.8719697356
  C        32.0090601817       23.0943095622       11.8347521247
  C        32.5737970479       24.1388125946       12.5606396861
  C        33.9115385884       24.5244057149       12.3471380198
  C        34.6509913489       23.8565021385       11.3527063000
  C        34.0880675630       22.8078281560       10.6273014652
  C        34.5359939667       25.6013154863       13.1501721431
  C        34.5135691005       25.5768889151       14.5720948828
  C        33.9885955853       24.4678440982       15.3081832488
  C        25.6891781633        8.6245610030       15.3044756303
  C        25.6915035183        8.6180114690       12.4912349544
  C        32.0848477759       21.2106242475        5.8857312751
  C        32.6522434508       22.3749323988        5.1435819409
  C        31.9071168762       23.0395797769        4.1566600281
  C        32.4790575461       24.0763388719        3.4210188961
  C        33.8086330695       24.4806698972        3.6549877192
  C        34.5345796275       23.8307154307        4.6719393119
  C        33.9689201671       22.7888244627        5.4015351269
  C        34.4464779934       25.5661170337        2.8729192917
  C        34.4652923679       25.5599813330        1.4507659268
  C        33.9639059643       24.4609073384        0.6848218402
  C        40.6239323194       17.1025805650        0.7634781805
  C        40.6096583003       17.1261153726        3.5727608871
  C        28.7099184278       14.0922553995        5.8191228946
  C        28.0901324173       12.9532913296        5.0814246778
  C        28.8284984114       12.2400934253        4.1239389080
  C        28.2451388588       11.1866473702        3.4255118504
  C        26.9061766157       10.8152726231        3.6601391688
  C        26.1831392377       11.5149557981        4.6447751767
  C        26.7646775707       12.5719839842        5.3435164103
  C        26.2700335741        9.7211887444        2.8863282066
  C        26.2773624713        9.7266810849        1.4639133763
  C        26.7881542943       10.8292063095        0.7090459859
  C        18.1354192352        3.1811417621       10.3172229947
  C        17.4061986952        4.2782957761       11.0157770001
  C        16.3903719464        3.9999998403       11.9432267123
  C        15.7427115660        5.0400203259       12.6066840718
  C        16.0947739300        6.3837334755       12.3670723247
  C        17.0842703095        6.6531925995       11.4034024018
  C        17.7333234548        5.6158166761       10.7383812067
  C        15.4704581325        7.4914171867       13.1301226712
  C        15.4856508324        7.4906153515       14.5518300586
  C        16.1872869467        6.4970400112       15.3049746862
  C        42.9459096815       31.8596636599       10.0729023762
  C        43.6463093407       30.7719822401       10.8168144528
  C        44.5914138430       31.0933381069       11.8032912784
  C        45.1971098910       30.0877963842       12.5509782862
  C        44.8711301404       28.7346732232       12.3357735787
  C        43.9458551177       28.4203189071       11.3220408647
  C        43.3370580296       29.4254400127       10.5739650302
  C        45.4886035899       27.6553485564       13.1389948286
  C        45.4926495538       27.6809355635       14.5606913330
  C        44.8056090662       28.6889859337       15.3073555995
  C        14.8566449026        8.5630655001       15.2642111954
  C        14.8752989563        8.5632572341       12.4515330805
  C        42.9465004267       31.9617058800        5.8090627127
  C        43.6918531776       30.8855761838        5.0957172337
  C        44.6559739347       31.1915377620        4.1229576558
  C        45.2775453978       30.1719682572        3.4052520020
  C        44.9543111722       28.8215887185        3.6433133256
  C        44.0214694216       28.5239081061        4.6546998586
  C        43.3931654743       29.5406365366        5.3668905689
  C        45.5632101975       27.7241720389        2.8580113422
  C        45.5332671787       27.7174157104        1.4367140052
  C        44.8269304002       28.7076307580        0.6837510950
  C        35.0841075912       26.6478126713        0.7493976183
  C        35.0626804527       26.6196568832        3.5601043331
  C        18.1487482665        3.2471818975        5.7065971778
  C        17.4303586562        4.3439530814        4.9972382974
  C        16.4149942445        4.0527562972        4.0737914812
  C        15.7667538743        5.0834320720        3.3984425283
  C        16.1216394617        6.4286434792        3.6210208129
  C        17.1132660605        6.7119520023        4.5780477557
  C        17.7608762320        5.6830028989        5.2578062763
  C        15.4910557705        7.5243085154        2.8486267658
  C        15.4967732823        7.5075509028        1.4275026284
  C        16.1935625150        6.5058823594        0.6807867994
  H        10.6724027672       12.4652369077        3.9051619320
  H        11.6947078901       10.5504349255        2.6633022979
  H        15.3923731299       11.1695729230        4.7713563169
  H        14.3518719680       13.0723355155        6.0164998538
  H        13.3761457468       11.6310854143        1.2013610513
  H        50.3227670210       22.7482563935        3.9867130288
  H        49.3196348835       24.6227507425        2.6806768114
  H        45.6424170358       24.1615054220        4.8640826086
  H        46.6634307463       22.2904879860        6.1723518130
  H        47.6295341224       23.5758038595        1.2463105048
  H        14.8728647128        8.5886500671        4.6085569113
  H        50.2870021878       22.7026876534       12.0604289980
  H        49.2690130174       24.5755761687       13.3604986812
  H        45.6103721832       24.1091417638       11.1462185259
  H        46.6525794154       22.2537343124        9.8319593061
  H        47.6074253332       23.5517502508       14.7969235023
  H        40.6537656443       17.1102133173       11.4222467161
  H        48.6872841814       14.0948657263        7.8001709572
  H        10.6812907858       12.4662005514       12.0927254816
  H        11.6896329836       10.5242834633       13.2964326115
  H        15.3942265850       11.1599592741       11.2065400620
  H        14.3656479438       13.0882760575        9.9912270869
  H        13.3757958536       11.6220819473       14.7531282152
  H        47.9302837480       14.2184548915        9.7107626890
  H        47.7801127236       14.3737243818        6.4955534288
  H        49.0840724079       18.5522683140       10.8675643411
  H        10.4163246688       14.1342438729        7.9986827150
  H        24.4856959058        3.0452213770        3.9125337802
  H        25.6116533235        4.9137806219        2.6884904364
  H        23.2136292905        7.7607347958        4.8432884473
  H        22.1072862504        5.8831109615        6.0701406988
  H        23.8007234011        5.8046859025        1.2587879021
  H        36.3594423285       32.1926117669        3.9853314553
  H        35.2147310108       30.3739726448        2.7163905493
  H        37.4807269986       27.4393350642        4.8972073881
  H        38.6048542739       29.2713061715        6.1760794581
  H        36.9890596730       29.4565497943        1.2967421927
  H        25.6817960982        8.6460604367        4.6505529785
  H        36.4535219871       32.2468781305       12.1107966668
  H        35.3362171167       30.4362586403       13.4100166540
  H        37.5333344626       27.4890884300       11.1745499665
  H        38.6250007682       29.3118542160        9.8623713360
  H        37.0215373787       29.4762111961       14.8490703218
  H        46.1095399560       26.5877268708       11.3857006794
  H        44.6684592565       35.1163361100        7.8138977710
  H        24.4400329000        3.0425146802       12.0881312693
  H        25.5745827522        4.8812818999       13.3353128987
  H        23.1779132169        7.7708457008       11.2373107808
  H        22.0547219502        5.9203357934        9.9900005872
  H        23.7953819334        5.7991848662       14.8105110054
  H        44.9543709800       34.3908938543        9.6955152952
  H        44.9021669894       34.2070990471        6.4904548845
  H        40.6669070325       33.2096746568       10.8534828755
  H        23.1503424989        1.9585838221        8.0049689778
  H        25.8560444659       19.6414556582        3.8453443796
  H        23.6737617196       19.7067140311        2.6322669148
  H        22.3353276266       16.2858729428        4.8697518342
  H        24.5163757634       16.2426191845        6.0867021454
  H        23.7213691068       17.6685295788        1.2376082858
  H        35.1672672338       15.4679868004        4.0629083910
  H        37.2734598465       15.4074325272        2.7202167308
  H        38.7221162601       18.8429585900        4.8655972799
  H        36.6097468981       18.8871999875        6.2068362648
  H        37.2295455041       17.3603307954        1.2488998502
  H        20.3639801778       18.0295682010        4.6636077201
  H        35.1923383548       15.4535869459       12.0764598489
  H        37.3276163046       15.3880672819       13.3690506026
  H        38.7414246126       18.8158991580       11.1879696625
  H        36.6034179919       18.8576310306        9.8866104280
  H        37.2439696736       17.3592032348       14.7977565591
  H        35.1465591995       26.6901830644       11.4064180545
  H        28.5115574998       21.0845058414        7.9940677678
  H        25.7472515917       19.6340206569       12.1587532975
  H        23.5628817649       19.6856006501       13.3707961253
  H        22.2986107895       16.1775432146       11.2278031539
  H        24.4844759718       16.1465575042       10.0113317383
  H        23.6975739964       17.6402452729       14.7892146157
  H        29.0163571984       21.7130545318        9.7591229894
  H        29.1117246051       21.7654315834        6.6076100060
  H        32.0743098410       18.5193409706       11.0086725033
  H        27.4016148201       19.0759206350        8.0865525479
  H        14.8473911679       19.6507081756       12.1358253631
  H        17.0104966216       19.6978439594       13.3790033189
  H        18.2998794357       16.1870506105       11.2554667801
  H        16.1330588618       16.1558933243       10.0113573134
  H        16.9185286883       17.7081248100       14.8488474742
  H        46.0957882161       15.4419730862       12.0671234072
  H        43.9722892762       15.3858261622       13.3779468189
  H        42.5572796691       18.8216017057       11.2104610708
  H        44.6807174953       18.8518119488        9.8886167485
  H        44.0305021600       17.3272637183       14.8365170211
  H        20.2849947943       17.9189119779       11.4171873165
  H        46.0426458073       15.3833833003        4.0417704637
  H        43.9116041252       15.3235456124        2.7439757516
  H        42.5277865796       18.7968446515        4.8702627044
  H        44.6650125948       18.8424474017        6.1693525349
  H        44.0161265263       17.3073355526        1.2865326604
  H        46.1998374290       26.6828710811        4.6234510199
  H        52.7411963153       21.0626155704        8.1946497369
  H        14.8707467578       19.6827865360        3.9002201394
  H        17.0695010143       19.7714379933        2.7190557985
  H        18.3492489372       16.2609124664        4.8481116002
  H        16.1519478655       16.1955417726        6.0385279394
  H        16.9419539115       17.7362873430        1.2959665882
  H        52.3225028578       21.6733774418        6.2943733710
  H        52.0132960426       21.7021360019        9.4955834224
  H        49.0679891097       18.6077404932        5.2040173124
  H        13.2476774114       19.0163129506        7.9773912014
  H        29.9541343626       12.4732103178       12.2203398424
  H        28.8919133167       10.5495974649       13.4093569147
  H        25.2596350102       11.1929162517       11.1978730279
  H        26.3393885524       13.1071139237       10.0055986297
  H        27.1732943660       11.6814087776       14.7928309561
  H        30.9822789271       22.7827025048       12.0105100223
  H        31.9808959207       24.6701554003       13.3019545836
  H        35.6865008928       24.1438489981       11.1819942869
  H        34.6652379951       22.2675047988        9.8804347997
  H        33.6284261394       23.6024625675       14.7592771651
  H        25.7260882724        8.5972829767       11.4033709863
  H        30.8810343918       22.7282062444        3.9726856660
  H        31.8937831449       24.5920018576        2.6626271339
  H        35.5633740174       24.1311167195        4.8596370697
  H        34.5366159628       22.2652327982        6.1671810715
  H        33.5842564773       23.5899652828        1.2112654076
  H        40.6044013736       17.0956941432        4.6606097839
  H        32.5172303976       14.1403455853        8.2602650092
  H        29.8639632118       12.5179353429        3.9436944131
  H        28.8270530109       10.6326865472        2.6921611314
  H        25.1468786876       11.2419014900        4.8333557363
  H        26.2016031717       13.1272492404        6.0900755048
  H        27.1443393742       11.7073287006        1.2400390992
  H        33.3047603107       14.2135486131        6.4477653379
  H        33.4110352153       14.4088209290        9.6027018511
  H        32.2123922903       18.5363908552        5.1690873288
  H        30.2294327119       14.1951824309        8.0648805073
  H        16.1181847130        2.9635280554       12.1295907727
  H        14.9531940299        4.8207418715       13.3222967178
  H        17.3669174528        7.6860338392       11.2104140954
  H        18.5155336858        5.8185025029       10.0107303637
  H        16.7540023291        5.7398214606       14.7714746282
  H        44.8274266493       32.1404407101       11.9777449857
  H        45.9367086902       30.3416280955       13.3071594920
  H        43.6837188607       27.3781832108       11.1514676145
  H        42.6009961827       29.1900638667        9.8087784832
  H        44.2303774466       29.4368689493       14.7690851842
  H        14.8517207128        8.5466561715       11.3633070919
  H        44.8991709459       32.2342407263        3.9311683669
  H        46.0241281368       30.4132801956        2.6517192821
  H        43.7651685573       27.4841173502        4.8468129372
  H        42.6472579505       29.3178074454        6.1259063687
  H        44.2685819466       29.4706388512        1.2183256352
  H        35.0206406355       26.6293512119        4.6476532824
  H        36.6053883241       35.1342142930        8.1805934544
  H        16.1436993996        3.0132205879        3.9041941328
  H        14.9742936674        4.8567059290        2.6884743921
  H        17.3970678571        7.7473760597        4.7547270267
  H        18.5439631513        5.8934723993        5.9823369077
  H        16.7652013235        5.7557771327        1.2191915076
  H        36.2789588054       34.4825316438        6.2730498630
  H        36.3812332944       34.2089714235        9.4992628336
  H        40.5803259150       33.2028108349        5.1537131677
  H        17.4712566261        1.9477171421        7.9742119324
  H        29.0021628447       19.2134055147       12.5637235542
  H        30.4407063557       19.5691884661        3.5006033817
  H        31.0351594679       14.9844456944        4.0273072330
  H        31.4310640743       15.6219008230       12.5229038171
  H        28.4665836341       17.4687203128       14.9129232304
  H        29.8167113725       15.2244921433       14.4925824446
  H        32.0758678574       19.8115616802        1.1642655732
  H        31.9420936674       18.2597602451        1.6932725195
  H        28.3964856991       17.9249623983        1.8747994895
  H        32.5627548137       18.5660119677       15.2814052096
  H        18.8541294028        0.8693283709       12.3351672785
  H        40.5280957388       35.2288142221        3.9519133114
  H        42.3254397289       34.4201796979        3.5898174430
  H        22.0878471755        0.6925819507       12.3514470571
  H        11.5966213369       18.7131770337       12.3826532542
  H        52.2649290782       18.4310687770        3.6772884237
  H        49.2552920644       16.4766167705        3.5844548937
  H        10.1510589113       15.7982569944       12.2926252981
  H        50.8500447356       17.6923983354        3.9541717662
  H        10.0464866089       17.3946505493       12.0519601674
  H        20.2156738626        0.0026456079       12.0418470362
  H        39.1839069039       36.1245857067        3.6865725156
 Ni        30.2680682228       16.6473792385        2.7452634115
 Ni        31.4534876181       16.2547317738       -0.1655345069
 Ni        30.2294573043       18.4205168408        0.1645969386
 Ni        30.1046695934       17.2778160630       13.1612407808
  O        10.6500856853       14.3650511018        5.4858240447
  O        12.6132703939       14.6575399973        6.5838916243
  O        49.1481439945       16.8458417205        7.9897891505
  O        50.3502923780       20.9359354025        5.6480216398
  O        48.3485647374       20.5933577992        6.6659124026
  O        11.0518246869       17.0537754432        6.5007482724
  O        50.3209109296       20.8817436603       10.4068929463
  O        48.3466885155       20.5868346566        9.3271709776
  O        49.5438344125       18.2484164005       10.0682716585
  O        12.3591709538       18.6246025479        7.9995955165
  O        48.6933181036       14.1484979034        6.7513760560
  O         8.2099790802       14.2103040389        9.3224632707
  O        10.7354296717       14.5067037488       10.6643277984
  O        12.5718372503       14.5828192084        9.3284502679
  O        22.8447767558        2.0447297746        5.4868873215
  O        21.6050082780        3.5921850140        6.5905059434
  O        42.0582678865       34.1375717536        7.9790123482
  O        37.9813100584       33.1372559546        5.5725481888
  O        39.2174637886       31.5753415539        6.6660830515
  O        20.3086399892        1.0400215229        6.5022872425
  O        38.0244485563       33.1852984387       10.4156206282
  O        39.2182650552       31.5828485808        9.3275603965
  O        40.6522822396       33.7693677707       10.0601950057
  O        18.2556903097        1.3761988444        7.9968369473
  O        44.6221620485       35.1006404463        6.7587435993
  O        24.2054348970        0.0000414935        9.3207546529
  O        22.7534205488        2.0585910714       10.5843421919
  O        21.6251051160        3.5968185906        9.3440851347
  O        27.5498104608       18.6948195601        5.4190023149
  O        26.7329107018       16.9882718836        6.6711117893
  O        30.6661659720       19.4000290506        8.0683267426
  O        33.6211155663       16.3309346523        5.7406877110
  O        34.3079038134       18.2486650963        6.7451296125
  O        29.5801196183       17.0732230391        6.5729794171
  O        33.6107706244       16.3249476377       10.4105544899
  O        34.3046419764       18.2446645621        9.4093484784
  O        31.6502956840       18.3163124603       10.1567114274
  O        30.3239503000       15.1617570296        8.0755660605
  O        28.5498602383       21.0310281468        6.9112828338
  O        28.5161497984       20.9544306650        9.4122094749
  O        27.4549975358       18.6812548938       10.6573098513
  O        26.6936583773       16.9306430496        9.4138990917
  O        13.1479038567       18.6931131653       10.5870650595
  O        13.9189364925       16.9161804961        9.4046750407
  O        50.5964140992       19.3503143187        8.0204224111
  O        47.6842958190       16.3265857745       10.4170587536
  O        46.9517378652       18.1756795886        9.3248517988
  O        11.0699955478       17.0153947186        9.4895251719
  O        47.6769497356       16.3352329651        5.6533492709
  O        46.9287936180       18.2356750684        6.6651236096
  O        49.5689629904       18.3177322769        5.9823388568
  O        10.3187654312       15.1000722435        7.9970738471
  O        52.6707670133       21.0279029961        9.2418140602
  O        12.1468237772       20.8912553095        6.6733017392
  O        13.1075072817       18.6140726531        5.3256231051
  O        13.9577785547       16.9877389214        6.6642773273
  O        30.0002188027       14.4343717776       10.6622495628
  O        28.0779596701       14.6600946268        9.4791184938
  O        32.1410299803       16.8683748533        8.0760477509
  O        30.9610907991       20.9472280349       10.4138733539
  O        32.9437512366       20.6065507573        9.3434073202
  O        29.5652949913       17.0770732411        9.5699254444
  O        30.8584465519       20.8954359823        5.6593362047
  O        32.8721330202       20.5866930044        6.6667651849
  O        31.6707234338       18.2435916386        5.9177660707
  O        28.2893780226       18.6813815193        8.0780286993
  O        32.4954761407       14.2123145069        9.3294059438
  O        32.4069432846       14.2148797646        6.8209507138
  O        29.9020012219       14.4293031055        5.5061618022
  O        28.0060617199       14.6469687811        6.7369924553
  O        17.8892709133        1.9666203123       10.6627782970
  O        18.9562717847        3.5271288889        9.4079976623
  O        39.1685793502       34.1387220682        7.9972168294
  O        43.2801882363       33.0590317730       10.3317239309
  O        42.0343978844       31.5064989792        9.2416604864
  O        20.3178236733        1.0368641245        9.4800994695
  O        43.2759838444       33.1825997327        5.5749162308
  O        42.0051818284       31.5840938913        6.5830191612
  O        40.5789723432       33.7750886003        5.9361154973
  O        22.3675252951        1.3848685013        7.9980546171
  O        36.6728432590       35.0997572645        9.2332853643
  O        16.4457674502        0.0643370963        6.6683074176
  O        17.9365721935        2.0434165629        5.3264268030
  O        18.9190789219        3.5931214023        6.6660335721
  O        29.6909811245       19.1980152502        4.0071094465
  O        29.7440389009       18.8251000308       12.0637339540
  O        31.4138437485       15.8903517713        4.0685803716
  O        31.3046470158       16.4198628677       11.9666958120
  O        32.0120673181       16.7862515932        1.5800447377
  O        29.1180025407       17.4498084125        1.4264325390
  O        30.5895468664       15.7581984548       14.2394642803
  O        31.7209712780       18.1662627366       14.9998934205
  O        31.4597708924       19.1927095544        1.5912668464
  O        29.1390018739       18.0986200966       14.5922169304
  O        39.4568221553       35.2438052363        4.0019709171
  O        19.1420679253        0.0048334761       11.9904799911
  O        41.9695057409       35.1727675681        4.0872568640
  O        21.6914942096       -0.0689981933       11.8959487573
  O        51.3650835915       18.6142789170        4.0053423381
  O        10.7508818240       18.7472668355       11.9049767811
  O        50.0797237284       16.4127998127        4.0917420210
  O         9.5250134116       16.4829976901       11.9912165326
 Zr         9.2974883352       16.0525379259        6.1825561150
 Zr        49.8370365716       16.0065202244        9.7464118043
 Zr        22.0736358850        0.0309362134        6.1888274690
 Zr        42.4614166098       35.1544652345        9.8011845395
 Zr        29.6036512788       19.1150807792        6.3243091796
 Zr        29.5718276314       19.1573371098        9.9068178966
 Zr        11.0384226628       19.0517194557        9.8277239663
 Zr        11.0445291744       19.1545998108        6.2507671309
 Zr        31.3463463658       16.0972230664        9.8649231986
 Zr        31.4047206362       16.0142322871        6.2952051352
 Zr        18.6015889263       -0.0006196628        9.7633893454
 Zr        18.5071394210       -0.0066819988        6.2138726608
 Zr        12.3028838513       16.3236447970        7.9899700694
 Zr        48.6174038389       18.8329919520        8.0105279408
 Zr        20.3160289791        2.4748246177        7.9911137580
 Zr        40.6440781674       32.6878758386        7.9782326084
 Zr        28.3317721527       16.3534221596        8.0792610999
 Zr        32.6390154711       18.8412522015        8.0733349866
  H        29.1300734222       16.5463409804        3.6291340219
  H        29.6219473135       18.2385782059        3.6640627548
  H        32.5933720570       16.1964241767        2.0930905622
  H        31.2822144425       14.9031921621        0.3340801503
