     576
 i =      240, E =     -4780.0560839677
  C        11.8589482526       14.0535165484        5.7414719196
  C        12.4564346713       12.8905586378        5.0232410564
  C        11.7046006322       12.1713542466        4.0819002359
  C        12.2810197239       11.1091872429        3.3895355382
  C        13.6217062741       10.7396656616        3.6170494785
  C        14.3550749453       11.4436401133        4.5900615925
  C        13.7821605078       12.5085927991        5.2815888705
  C        14.2612334025        9.6490178338        2.8436229419
  C        14.2564177511        9.6568890713        1.4219263267
  C        13.7431335396       10.7589627292        0.6680322147
  C        49.1269062226       21.2331292144        5.8796451277
  C        48.5501294898       22.4011734435        5.1525282105
  C        49.3001276071       23.0684481867        4.1715135996
  C        48.7331901949       24.1076101973        3.4383194884
  C        47.4027108976       24.5093240682        3.6670740665
  C        46.6718391970       23.8605707811        4.6807138005
  C        47.2343018442       22.8156520214        5.4100398203
  C        46.7723599756       25.5869814166        2.8698321963
  C        46.7611418134       25.5573051753        1.4480755976
  C        47.2609093065       24.4421289293        0.7045951031
  C        14.8603711931        8.5705781920        0.7086438513
  C        14.8921534870        8.5971502795        3.5202506344
  C        49.1132810514       21.2034254831       10.1454609518
  C        48.5278480653       22.3648153627       10.8727478922
  C        49.2670355192       23.0255177741       11.8656702786
  C        48.6906677031       24.0600790131       12.5971258116
  C        47.3602837509       24.4568381678       12.3587823651
  C        46.6399135808       23.8119561483       11.3352283390
  C        47.2135099989       22.7760402206       10.6034857732
  C        46.7218022097       25.5318417405       13.1497546054
  C        46.7332537476       25.5280948976       14.5714614326
  C        47.2486160703       24.4288388249       15.3278353588
  C        40.6358462000       17.1424184776       15.3226212646
  C        40.6529635731       17.1702572357       12.5139906600
  C        11.8830629875       14.0864847164       10.2854982150
  C        12.4725016597       12.9108348661       10.9898719328
  C        11.7148439443       12.1773528790       11.9156405952
  C        12.2814985814       11.0948904660       12.5839881551
  C        13.6204955055       10.7215646362       12.3525374246
  C        14.3585960239       11.4374714177       11.3920962625
  C        13.7931491697       12.5186506180       10.7194309994
  C        14.2540339558        9.6247160447       13.1228740205
  C        14.2526341206        9.6445848125       14.5447097348
  C        13.7425606616       10.7534411972       15.2917794992
  C        22.5111781837        3.2454936013        5.7534061153
  C        23.2217048596        4.3537458243        5.0551493678
  C        24.2212351256        4.0807267271        4.1096226325
  C        24.8423456798        5.1250228217        3.4293166543
  C        24.4791593193        6.4645356866        3.6737182924
  C        23.5082657409        6.7290714930        4.6567344326
  C        22.8830114329        5.6868291498        5.3357807868
  C        25.0771256957        7.5753901346        2.8985615654
  C        25.0545356938        7.5650651294        1.4769312405
  C        24.3598570633        6.5605042903        0.7308307103
  C        38.2988734443       31.9287282772        5.8521997110
  C        37.5583095395       30.8398501521        5.1499665989
  C        36.5928059422       31.1472328944        4.1789996092
  C        35.9634779937       30.1295148082        3.4673594356
  C        36.2846298832       28.7785508195        3.7039720115
  C        37.2198526172       28.4784226538        4.7122866411
  C        37.8531674726       29.4952464947        5.4232281510
  C        35.6739617978       27.6910507018        2.9050476665
  C        35.7132138830       27.7063372067        1.4833991643
  C        36.4293750773       28.7050116301        0.7506524359
  C        25.6741151045        8.6366404217        0.7566215027
  C        25.6624033114        8.6569511619        3.5694714631
  C        38.3311883190       31.9614747177       10.1602103702
  C        37.6151205643       30.8883164945       10.9105471973
  C        36.6821709214       31.1984903324       11.9119826975
  C        36.0725454393       30.1818501046       12.6452418164
  C        36.3810114593       28.8285156429       12.4010282652
  C        37.2952792160       28.5280425896       11.3726415986
  C        37.9067548259       29.5413582427       10.6406323614
  C        35.7648494049       27.7308633198       13.1827944025
  C        35.7597648477       27.7266240988       14.6052743161
  C        36.4502739612       28.7155386227       15.3740683536
  C        46.1353034349       26.6207611390       15.2816077301
  C        46.0879937868       26.5802912688       12.4737114479
  C        22.4613725267        3.2568543549       10.2590404663
  C        23.1547464137        4.3657305263       10.9828170614
  C        24.1541617409        4.0805701214       11.9270190549
  C        24.7809078419        5.1111209524       12.6239277769
  C        24.4292014884        6.4574155853       12.3995505817
  C        23.4531714130        6.7356634447       11.4236607959
  C        22.8215497677        5.7054812339       10.7274869523
  C        25.0574810350        7.5572928226       13.1744283522
  C        25.0447887868        7.5550836619       14.5973987733
  C        24.3525542518        6.5574461501       15.3539502063
  C        26.6293440005       17.8621397263        5.7537699441
  C        25.3233784021       17.9176132297        5.0289069638
  C        25.0774112851       18.8958164878        4.0531790415
  C        23.8586492284       18.9223068897        3.3768020971
  C        22.8536034068       17.9717571482        3.6510846287
  C        23.0985527188       17.0165428016        4.6555581216
  C        24.3161738813       16.9871797751        5.3324592049
  C        21.5781157065       17.9541503829        2.8918045912
  C        21.5763401344       17.9148660404        1.4698023842
  C        22.7801050245       17.7715625505        0.7098579341
  C        34.4746954810       17.2502059501        5.9582358899
  C        35.7624028306       17.1868207469        5.2088662434
  C        35.9530864272       16.2108475096        4.2184291805
  C        37.1252679569       16.1918986757        3.4677465577
  C        38.1369449531       17.1460293422        3.6904028500
  C        37.9489639185       18.1014747813        4.7071933127
  C        36.7737150219       18.1274589306        5.4535314321
  C        39.3865590391       17.1474249368        2.8977772372
  C        39.3799658211       17.1587336094        1.4764774765
  C        38.1719761207       17.2775017046        0.7199357867
  C        20.3293174961       17.9320759588        0.7626885073
  C        20.3537608756       17.9631928552        3.5756418760
  C        34.4784490992       17.2444303375       10.1811183783
  C        35.7797825126       17.1740091319       10.9055934244
  C        35.9862112466       16.1989631877       11.8928335786
  C        37.1713989711       16.1814693390       12.6222008716
  C        38.1763982023       17.1387627858       12.3836723445
  C        37.9753179764       18.0890379628       11.3653052874
  C        36.7882962312       18.1116552118       10.6384831618
  C        39.4223646139       17.1579603685       13.1792308057
  C        39.3985874290       17.1670590608       14.6001807192
  C        38.1809840908       17.2806019307       15.3430280843
  C        35.1165193629       26.6519342305       15.3051469929
  C        35.1784564087       26.6601381267       12.4956985052
  C        26.5706794303       17.8271624043       10.3265330534
  C        25.2562614833       17.8703245213       11.0315916399
  C        24.9952773850       18.8658884477       11.9850609838
  C        23.7763231656       18.8884496460       12.6566417414
  C        22.7902081019       17.9149469068       12.3993849863
  C        23.0464571131       16.9439855388       11.4144240584
  C        24.2657495252       16.9195256989       10.7404326463
  C        21.5262122395       17.8939765909       13.1711596810
  C        21.5497671670       17.8820163829       14.5925095127
  C        22.7673604797       17.7556486982       15.3337431565
  C        14.0461946501       17.8288398608       10.2882380334
  C        15.3501930448       17.8853156191       11.0126966813
  C        15.6071772277       18.8877185252       11.9609626683
  C        16.8162357547       18.9071960256       12.6533883769
  C        17.8018468739       17.9270861543       12.4193385811
  C        17.5497410682       16.9492648032       11.4386018009
  C        16.3402052381       16.9251305783       10.7478120533
  C        19.0705070423       17.9078721471       13.1877729848
  C        19.0688342534       17.9060336715       14.6101897174
  C        17.8620822309       17.8111870141       15.3725064454
  C        46.8064758025       17.2198044346       10.1592684078
  C        45.5180498454       17.1621650929       10.9067655376
  C        45.3119305542       16.1881333736       11.8957080672
  C        44.1315199305       16.1757681816       12.6337001003
  C        43.1286696751       17.1376572697       12.4038768413
  C        43.3321025283       18.0913241154       11.3884915356
  C        44.5131256208       18.1076256142       10.6516360392
  C        41.8765919796       17.1540200401       13.1926604586
  C        41.8826191972       17.1546575744       14.6141559657
  C        43.0921274866       17.2481038882       15.3719141461
  C        20.3156009245       17.9150408814       15.3178936662
  C        20.2941675502       17.8865412352       12.5048189539
  C        46.7878942948       17.2314796120        5.8903536518
  C        45.4855002933       17.1290108717        5.1754685999
  C        45.2657236073       16.1326625817        4.2127395973
  C        44.0785293295       16.1115191970        3.4856570857
  C        43.0839723095       17.0837592309        3.7056493997
  C        43.2936808832       18.0493509776        4.7074115174
  C        44.4819112401       18.0769650164        5.4293803482
  C        41.8391495786       17.1120257562        2.9091398694
  C        41.8637079339       17.1305401096        1.4888786574
  C        43.0832740918       17.2338530001        0.7484716014
  C        46.1530806644       26.6371929322        0.7263713122
  C        46.1626785526       26.6562209074        3.5359946835
  C        14.0462603730       17.8331281855        5.7087103057
  C        15.3675269736       17.9113284055        5.0184546063
  C        15.6366064545       18.9262127878        4.0877446887
  C        16.8650359422       18.9677297174        3.4318276933
  C        17.8531736899       17.9938666432        3.6807154097
  C        17.5909672178       17.0082226086        4.6498746339
  C        16.3643342577       16.9659047974        5.3090715360
  C        19.1202326346       17.9715215706        2.9102550457
  C        19.0947688201       17.9381572902        1.4887097923
  C        17.8747534839       17.8253530735        0.7488488955
  C        28.8073177352       14.0906528100       10.3855984203
  C        28.1919456159       12.9198634336       11.0755708404
  C        28.9058065460       12.1984966740       12.0440977402
  C        28.3057326494       11.1252777238       12.6978131443
  C        26.9775251253       10.7509553532       12.4091433292
  C        26.2861019236       11.4540939385       11.4061717353
  C        26.8840050136       12.5268563453       10.7497209282
  C        26.3060374073        9.6733242223       13.1712695327
  C        26.2848197861        9.7050225293       14.5925460032
  C        26.7797929512       10.8222275820       15.3377224803
  C        32.1800907402       21.2426702545       10.1438768494
  C        32.7758623245       22.4093153517       10.8639189276
  C        32.0202321859       23.0961194634       11.8269120995
  C        32.5875313845       24.1365937434       12.5566920221
  C        33.9269849469       24.5181031681       12.3462290472
  C        34.6659635452       23.8489573632       11.3523468331
  C        34.1004059863       22.8037054275       10.6234518930
  C        34.5515851920       25.5940659913       13.1505931763
  C        34.5264490762       25.5702810665       14.5724200488
  C        34.0003481807       24.4615307878       15.3081855580
  C        25.6752589157        8.6271693266       15.3115721778
  C        25.6746726038        8.6186429033       12.4984163526
  C        32.0802003754       21.2058027319        5.8823451738
  C        32.6457092478       22.3723758394        5.1405701160
  C        31.9022720069       23.0369825019        4.1524540486
  C        32.4752415819       24.0742517515        3.4178201279
  C        33.8042448906       24.4793188059        3.6541377312
  C        34.5280611560       23.8300643872        4.6729540047
  C        33.9614448872       22.7877915440        5.4012005803
  C        34.4443123120       25.5645157301        2.8731744880
  C        34.4687450172       25.5565244361        1.4511316496
  C        33.9709385005       24.4560298841        0.6847582140
  C        40.6259192539       17.1338617137        0.7667103557
  C        40.6101293244       17.1400154173        3.5759258076
  C        28.7132969868       14.0958547122        5.8178072514
  C        28.0938882184       12.9558371871        5.0806089930
  C        28.8286044388       12.2470772636        4.1171094518
  C        28.2442162755       11.1928606640        3.4205304981
  C        26.9081068464       10.8162873619        3.6633021282
  C        26.1889387944       11.5117618999        4.6536202503
  C        26.7713725632       12.5695509424        5.3502957393
  C        26.2701241599        9.7217577536        2.8918733668
  C        26.2688142180        9.7294261627        1.4695901318
  C        26.7702806799       10.8353993087        0.7138194158
  C        18.1354308039        3.1811588353       10.3172637757
  C        17.4062547617        4.2783140220       11.0158516512
  C        16.3902904703        4.0000331092       11.9431530323
  C        15.7426460422        5.0400644834       12.6066067878
  C        16.0948291643        6.3837581040       12.3670782896
  C        17.0845247586        6.6532112199       11.4036155333
  C        17.7335589674        5.6158209660       10.7385980246
  C        15.4705137007        7.4914444590       13.1301314331
  C        15.4856616916        7.4906231904       14.5518387866
  C        16.1872752982        6.4970342444       15.3049854007
  C        42.9459145764       31.8596615938       10.0728755539
  C        43.6463264139       30.7719759012       10.8167895319
  C        44.5914515244       31.0933359243       11.8032386997
  C        45.1971473675       30.0878100502       12.5509469299
  C        44.8712091295       28.7346822276       12.3357205875
  C        43.9458959016       28.4203151821       11.3220277771
  C        43.3371127440       29.4254303501       10.5739335310
  C        45.4886919845       27.6553839966       13.1389741332
  C        45.4926977453       27.6809418009       14.5606719254
  C        44.8056901881       28.6890256129       15.3073235301
  C        14.8565801596        8.5630261642       15.2642226845
  C        14.8753588383        8.5632852899       12.4515395187
  C        42.9464817757       31.9617204934        5.8090099829
  C        43.6918904895       30.8855756256        5.0957253389
  C        44.6560584095       31.1915321585        4.1230150115
  C        45.2776525759       30.1719705023        3.4053147086
  C        44.9543468968       28.8215991438        3.6432998566
  C        44.0214896707       28.5239107452        4.6546712712
  C        43.3931662050       29.5406359780        5.3668487718
  C        45.5632322675       27.7241756271        2.8579950416
  C        45.5332879819       27.7174334602        1.4366970272
  C        44.8270001243       28.7076749330        0.6837195629
  C        35.0898838627       26.6435303859        0.7505340726
  C        35.0583785055       26.6189143516        3.5611483499
  C        18.1487537441        3.2471558876        5.7065206092
  C        17.4303961789        4.3438856538        4.9970769713
  C        16.4149437674        4.0526834713        4.0737304525
  C        15.7666482572        5.0833598732        3.3984351865
  C        16.1215373521        6.4285725713        3.6210182113
  C        17.1131482891        6.7118925765        4.5780545004
  C        17.7608137344        5.6829391632        5.2577516526
  C        15.4909330033        7.5242224184        2.8486145163
  C        15.4966294353        7.5074810527        1.4274903815
  C        16.1934936434        6.5058459343        0.6807979986
  H        10.6723583958       12.4652426496        3.9051428888
  H        11.6946426912       10.5504496170        2.6632666442
  H        15.3922628143       11.1694050878        4.7714508885
  H        14.3518058424       13.0721588035        6.0166219704
  H        13.3760913311       11.6310532402        1.2013776641
  H        50.3227984366       22.7483142061        3.9867143066
  H        49.3196530832       24.6228129098        2.6806777134
  H        45.6424111290       24.1614798848        4.8640200067
  H        46.6634381800       22.2904503617        6.1722722764
  H        47.6294985488       23.5757869589        1.2463029938
  H        14.8727297832        8.5885647645        4.6085630723
  H        50.2870796486       22.7026371075       12.0605748432
  H        49.2690758517       24.5755383944       13.3606164344
  H        45.6105525849       24.1092850150       11.1460890451
  H        46.6527852357       22.2538453172        9.8318713667
  H        47.6074095782       23.5517404850       14.7969092103
  H        40.6584770542       17.1362187856       11.4262479090
  H        48.6872025901       14.0948593931        7.8000993985
  H        10.6812396579       12.4661352977       12.0927229241
  H        11.6896328503       10.5242358116       13.2964170960
  H        15.3942220516       11.1600193368       11.2065751174
  H        14.3656439353       13.0883359245        9.9912742023
  H        13.3757924440       11.6220841359       14.7531490837
  H        47.9302438223       14.2182992778        9.7109272778
  H        47.7801140008       14.3734754890        6.4953865921
  H        49.0843852969       18.5524809928       10.8676977859
  H        10.4163603097       14.1342281830        7.9987917308
  H        24.4891659210        3.0440499129        3.9179709253
  H        25.6177383249        4.9132549051        2.6962883161
  H        23.2204953388        7.7600084136        4.8520679377
  H        22.1111277857        5.8817757537        6.0762011026
  H        23.8004071959        5.8023362458        1.2709652613
  H        36.3605624387       32.1914703576        3.9836336411
  H        35.2156099380       30.3724240132        2.7156606627
  H        37.4760380026       27.4382559426        4.9028911298
  H        38.6009102888       29.2706939209        6.1802592200
  H        36.9933831780       29.4526922433        1.3006211900
  H        25.6929464018        8.6427775437        4.6574810700
  H        36.4540307548       32.2429237004       12.1124334589
  H        35.3423920738       30.4293384347       13.4126505603
  H        37.5475451479       27.4877861779       11.1776524510
  H        38.6333718012       29.3133680193        9.8645413919
  H        37.0311887299       29.4711132481       14.8528347995
  H        46.1097001151       26.5877897094       11.3856808586
  H        44.6685134089       35.1163682962        7.8138809566
  H        24.4309797926        3.0424694095       12.0965552993
  H        25.5594257155        4.8819564991       13.3484892897
  H        23.1697068018        7.7701439054       11.2405853225
  H        22.0523212388        5.9188237302        9.9888517850
  H        23.7867012060        5.7975973693       14.8227543613
  H        44.9546286579       34.3910948867        9.6955916005
  H        44.9023498230       34.2071227794        6.4904987642
  H        40.6671578605       33.2098285898       10.8535480753
  H        23.1502643129        1.9585179138        8.0055654940
  H        25.8529777838       19.6290159999        3.8416831633
  H        23.6702814250       19.6882035380        2.6274501158
  H        22.3351273474       16.2730865532        4.8756256034
  H        24.5158911292       16.2372942330        6.0942330917
  H        23.7192773138       17.6427261155        1.2398002156
  H        35.1647555275       15.4809335922        4.0476919502
  H        37.2740152633       15.4288146210        2.7067847787
  H        38.7240575022       18.8446991969        4.8823734967
  H        36.6098566050       18.8797695967        6.2216126421
  H        37.2325526834       17.3963759143        1.2522079374
  H        20.3618107026       18.0138480441        4.6630666162
  H        35.1984980881       15.4738164638       12.0843317949
  H        37.3323865696       15.4219201938       13.3840857333
  H        38.7462658475       18.8335688530       11.1778136265
  H        36.6100154026       18.8619108374        9.8717213285
  H        37.2481463039       17.4008857474       14.7998297524
  H        35.1631890348       26.6836362942       11.4077010808
  H        28.5106020917       21.0873161967        7.9927918540
  H        25.7608650511       19.6123861500       12.1838485838
  H        23.5732514771       19.6642813711       13.3916437898
  H        22.2937910338       16.1851207977       11.2105895270
  H        24.4800752054       16.1579179915        9.9945240245
  H        23.6968514444       17.6158513622       14.7898794125
  H        29.0000746010       21.7206500282        9.7664365018
  H        29.1171728885       21.7612218785        6.6067649416
  H        32.0954049903       18.5556239800       10.9837352382
  H        27.3975278418       19.0696492023        8.0772842504
  H        14.8490069047       19.6468411765       12.1398939269
  H        17.0125428736       19.6904776003       13.3823803149
  H        18.3008332392       16.1850890019       11.2492899754
  H        16.1333650706       16.1570317927       10.0064277007
  H        16.9191405681       17.6947488557       14.8461963806
  H        46.0936392599       15.4546458336       12.0787763911
  H        43.9710068357       15.4128978610       13.3923217930
  H        42.5651855329       18.8416008410       11.2076577274
  H        44.6878704571       18.8579511718        9.8841640116
  H        44.0333921806       17.3626784898       14.8419612843
  H        20.2875789481       17.9186189577       11.4167599011
  H        46.0408449985       15.3905369434        4.0358098110
  H        43.9088334843       15.3394881421        2.7383122447
  H        42.5292106283       18.8034341427        4.8824209828
  H        44.6677635048       18.8410618807        6.1800659210
  H        44.0177458223       17.3363147941        1.2925036681
  H        46.1998700078       26.6828858243        4.6234249738
  H        52.7412466583       21.0626170656        8.1946887670
  H        14.8729145003       19.6764147414        3.8948018871
  H        17.0717763635       19.7577442320        2.7130290346
  H        18.3449980108       16.2498029079        4.8502874181
  H        16.1475177612       16.1915323706        6.0409186335
  H        16.9413707959       17.7195704095        1.2935748623
  H        52.3225994659       21.6733847439        6.2943027210
  H        52.0132646021       21.7020854378        9.4955831012
  H        49.0681770192       18.6078073458        5.2040351462
  H        13.2477931259       19.0161005849        7.9772858900
  H        29.9269238810       12.4958664786       12.2728000958
  H        28.8615187003       10.5645665284       13.4462128771
  H        25.2596613631       11.1758644771       11.1761401600
  H        26.3472368826       13.0910896995        9.9910255867
  H        27.1417686833       11.6913514186       14.7968786633
  H        30.9913826065       22.7882115873       11.9977796418
  H        31.9951797616       24.6693781641       13.2974633606
  H        35.7027889015       24.1330461513       11.1840014820
  H        34.6768107991       22.2622585287        9.8766933597
  H        33.6428624672       23.5957129602       14.7582689159
  H        25.7103458401        8.5960112791       11.4106375049
  H        30.8765861437       22.7251484795        3.9669649372
  H        31.8911786567       24.5899583183        2.6584897895
  H        35.5562061524       24.1311540470        4.8631282618
  H        34.5277586852       22.2645615717        6.1680998989
  H        33.5909016111       23.5855292837        1.2116756872
  H        40.6044485681       17.1017272902        4.6635152632
  H        32.5178046904       14.1457642820        8.2635255211
  H        29.8618459958       12.5293368441        3.9308638362
  H        28.8231746408       10.6423075371        2.6822637928
  H        25.1549168425       11.2346468490        4.8484534876
  H        26.2114035328       13.1216127973        6.1015232576
  H        27.1239283537       11.7147772602        1.2443653229
  H        33.3045817347       14.2116817036        6.4454913400
  H        33.4095765819       14.3989784714        9.6107790224
  H        32.2056748390       18.5343105470        5.1606781512
  H        30.2258653573       14.1947026517        8.0595989800
  H        16.1179967842        2.9635716971       12.1294240844
  H        14.9530164811        4.8208259033       13.3221072835
  H        17.3673193823        7.6860336008       11.2107481917
  H        18.5159218814        5.8184777801       10.0111022935
  H        16.7540088625        5.7398340776       14.7714785972
  H        44.8274435487       32.1404444248       11.9776790960
  H        45.9367759739       30.3416709573       13.3070910555
  H        43.6838173422       27.3781660405       11.1514537297
  H        42.6010658812       29.1900399432        9.8087383640
  H        44.2305290148       29.4369552988       14.7690417537
  H        14.8518281392        8.5467122875       11.3633126610
  H        44.8993064004       32.2342296346        3.9312678826
  H        46.0242696265       30.4132821509        2.6518154885
  H        43.7651514562       27.4841199438        4.8467433665
  H        42.6472277342       29.3178090324        6.1258316552
  H        44.2687069905       29.4707269598        1.2182895347
  H        35.0126841709       26.6299130784        4.6485428186
  H        36.6054379488       35.1341848409        8.1805962164
  H        16.1437044281        3.0131359215        3.9041204062
  H        14.9742008407        4.8566053565        2.6884596926
  H        17.3969359344        7.7473248901        4.7547038778
  H        18.5439352191        5.8934452895        5.9822356619
  H        16.7651315852        5.7557439554        1.2192103530
  H        36.2789631468       34.4824842012        6.2730012000
  H        36.3812521232       34.2089320105        9.4992332458
  H        40.5802277021       33.2027164592        5.1536430671
  H        17.4711773121        1.9477221091        7.9742503305
  H        29.0283621595       19.2966228981       12.4888309606
  H        30.3739002130       19.5050338879        3.4529460819
  H        31.0529079201       14.9932634635        3.9649087523
  H        31.2038947670       15.5197968648       12.4737827762
  H        28.0399131863       17.7508899655       14.6688133729
  H        29.6206560438       15.0843967008       14.5564461631
  H        31.9324667433       19.9160724829        1.0928824658
  H        31.7466564669       18.3546519954        1.4397830844
  H        28.4061469515       17.5220040321        1.5415198732
  H        32.3723449242       18.3273197869       14.4124472630
  H        18.8542183017        0.8693247495       12.3351682770
  H        40.5281376775       35.2287760831        3.9518991151
  H        42.3255164839       34.4202889427        3.5896741373
  H        22.0878031795        0.6922667622       12.3516141817
  H        11.5968888478       18.7128399521       12.3825957878
  H        52.2649467912       18.4311411677        3.6772169399
  H        49.2553412511       16.4765685297        3.5843993087
  H        10.1500618531       15.7982593071       12.2929596897
  H        50.8500946491       17.6923966291        3.9541744708
  H        10.0461830208       17.3945650370       12.0519524102
  H        20.2158171773        0.0025591715       12.0418175180
  H        39.1839781049       36.1246242071        3.6866663691
 Ni        30.3498495558       16.6036798249        2.5801486373
 Ni        31.4443064532       16.1152798477       -0.4098743797
 Ni        29.9736091517       18.6192639507       -0.1596351455
 Ni        30.1831818229       17.4249135517       13.2367285464
  O        10.6501015008       14.3651028622        5.4858181857
  O        12.6132023415       14.6574703373        6.5839514024
  O        49.1482048835       16.8457801421        7.9897570828
  O        50.3503020538       20.9359553238        5.6480611981
  O        48.3486005192       20.5934261299        6.6659589405
  O        11.0518843944       17.0537516015        6.5007250941
  O        50.3210156788       20.8817182632       10.4069065811
  O        48.3467630748       20.5868773792        9.3272119045
  O        49.5438827889       18.2484225199       10.0683284323
  O        12.3592093767       18.6245667655        7.9996179919
  O        48.6933239890       14.1484673499        6.7513643308
  O         8.2099039318       14.2103617653        9.3225239960
  O        10.7354423286       14.5067801534       10.6643532964
  O        12.5717896396       14.5827866242        9.3284792780
  O        22.8446564249        2.0443538332        5.4871118941
  O        21.6047085850        3.5919029218        6.5908103167
  O        42.0582814910       34.1375622386        7.9789625631
  O        37.9812353096       33.1368054546        5.5724164226
  O        39.2174604566       31.5751857363        6.6660235466
  O        20.3085864546        1.0398452676        6.5022916537
  O        38.0244534130       33.1850873377       10.4157739194
  O        39.2185148324       31.5829968062        9.3273123823
  O        40.6522997420       33.7693710020       10.0601662394
  O        18.2556111655        1.3761856116        7.9968352006
  O        44.6221758978       35.1006157998        6.7587413007
  O        24.2054192295        0.0000318963        9.3207266795
  O        22.7531679820        2.0581837662       10.5841960630
  O        21.6248193332        3.5964447018        9.3436938218
  O        27.5450886596       18.6930140656        5.4207906458
  O        26.7332224408       16.9850501156        6.6737121588
  O        30.6680146809       19.4009620871        8.0589177749
  O        33.6209701257       16.3307662817        5.7387154897
  O        34.3083700780       18.2481164826        6.7440172385
  O        29.5818186396       17.0706698117        6.5703675800
  O        33.6226044033       16.3284517753       10.4078430579
  O        34.3061935985       18.2484555604        9.4068262076
  O        31.6551996174       18.3133841126       10.1527876723
  O        30.3249483136       15.1607859852        8.0779853182
  O        28.5498250003       21.0308476402        6.9098372287
  O        28.5141532195       20.9578767725        9.4092089068
  O        27.4577353928       18.6791099886       10.6597341899
  O        26.6944783661       16.9299737275        9.4137986171
  O        13.1483616407       18.6929763534       10.5871465349
  O        13.9189129227       16.9160856210        9.4045724211
  O        50.5966304993       19.3503602291        8.0205519449
  O        47.6835539823       16.3269774957       10.4172826182
  O        46.9523152736       18.1760474463        9.3242314616
  O        11.0699563598       17.0154074742        9.4895736988
  O        47.6769073101       16.3351583983        5.6531961128
  O        46.9300272803       18.2356301060        6.6658197850
  O        49.5691041202       18.3177407346        5.9823575515
  O        10.3187629575       15.1000554886        7.9970226112
  O        52.6707843444       21.0278928624        9.2418272994
  O        12.1468710361       20.8912624473        6.6732884136
  O        13.1076751631       18.6138767808        5.3256043772
  O        13.9573726760       16.9874850808        6.6645991773
  O        29.9910034745       14.4387477870       10.7212388612
  O        28.0873462889       14.6559090586        9.4894247614
  O        32.1398250500       16.8649902041        8.0716803454
  O        30.9673297611       20.9553231221       10.4067588832
  O        32.9484694261       20.6020127418        9.3390926019
  O        29.5670648290       17.0768962971        9.5737650752
  O        30.8532526698       20.8881455151        5.6546458645
  O        32.8697990877       20.5869832806        6.6643443794
  O        31.6713957389       18.2423837509        5.9150190776
  O        28.2874379085       18.6803185874        8.0743297497
  O        32.4944215687       14.2117318737        9.3303726627
  O        32.4066004250       14.2163208556        6.8182468305
  O        29.9049102808       14.4339496595        5.5018344666
  O        28.0082002204       14.6468773753        6.7370046266
  O        17.8892423192        1.9666060179       10.6627623477
  O        18.9562286933        3.5271080199        9.4079963348
  O        39.1685676579       34.1387065562        7.9971681956
  O        43.2801594599       33.0590155247       10.3317139693
  O        42.0344091468       31.5064740530        9.2416330240
  O        20.3178055150        1.0368783044        9.4801547673
  O        43.2760206739       33.1825783092        5.5748808492
  O        42.0051837773       31.5840881662        6.5830040326
  O        40.5789224215       33.7750446501        5.9360034712
  O        22.3674967126        1.3847604212        7.9980565597
  O        36.6728497910       35.0997343935        9.2332989150
  O        16.4457666788        0.0642653913        6.6682972165
  O        17.9365841531        2.0433551838        5.3264223283
  O        18.9190036642        3.5931151776        6.6660039956
  O        29.6567718175       19.1244488321        3.9981739610
  O        29.8137017398       18.9812662630       11.9976478044
  O        31.4274560102       15.8997116142        3.9985689201
  O        31.3564848157       16.3498825201       11.9711159358
  O        31.9815005096       16.8462709109        1.3244769882
  O        29.2765482053       17.2871799256        1.1793996485
  O        30.3839753826       15.5390120689       14.1624996406
  O        31.5168018097       17.9445226587       14.6633378706
  O        31.2674136206       19.2792490536        1.4051968899
  O        28.7250241062       18.3872688819       14.4050381587
  O        39.4568243928       35.2437920310        4.0019897172
  O        19.1421180979        0.0048365502       11.9904441653
  O        41.9694764741       35.1727786373        4.0871875212
  O        21.6913972330       -0.0692138562       11.8959958922
  O        51.3651120306       18.6142777642        4.0053376839
  O        10.7511374753       18.7471971684       11.9049590003
  O        50.0797249612       16.4127936652        4.0917619645
  O         9.5243411701       16.4831664580       11.9912224612
 Zr         9.2976192207       16.0524683173        6.1825617688
 Zr        49.8369176973       16.0065124874        9.7462992019
 Zr        22.0737163495        0.0309781270        6.1887376209
 Zr        42.4614623958       35.1544123309        9.8011383638
 Zr        29.5990181954       19.1088415169        6.3192017112
 Zr        29.5796259065       19.1701998586        9.8858175887
 Zr        11.0386931841       19.0516732160        9.8277942695
 Zr        11.0446112612       19.1546492215        6.2508082578
 Zr        31.3516145125       16.0934170252        9.8839802515
 Zr        31.4068704752       16.0129557860        6.2790571054
 Zr        18.6016861411       -0.0005369122        9.7634046366
 Zr        18.5071639709       -0.0066354282        6.2138326249
 Zr        12.3028512253       16.3235522010        7.9901168082
 Zr        48.6178277697       18.8331180054        8.0105495916
 Zr        20.3158900451        2.4747857751        7.9909695198
 Zr        40.6442010916       32.6880122297        7.9781548197
 Zr        28.3399646141       16.3517040683        8.0857096369
 Zr        32.6388244311       18.8316711766        8.0684853506
  H        29.1853787297       16.5093244823        3.4376019707
  H        29.5540261626       18.1834113042        3.6289551158
  H        32.6891836572       16.3776664025        1.8007584393
  H        31.3149582293       14.8219875901        0.2125429571
