     566
 i =      149, E =     -4712.2614258554
  C        11.8586057462       14.0535091970        5.7415455811
  C        12.4560775170       12.8905529838        5.0231228077
  C        11.7043232421       12.1716022781        4.0815503272
  C        12.2806312258       11.1093467928        3.3892052574
  C        13.6212047027       10.7395444943        3.6168954589
  C        14.3544687539       11.4431647286        4.5902494369
  C        13.7816215043       12.5081732595        5.2817493767
  C        14.2606372483        9.6487925228        2.8435317855
  C        14.2558577091        9.6566233726        1.4218285234
  C        13.7427269716       10.7587590264        0.6679172671
  C        49.1265813433       21.2334144881        5.8797735510
  C        48.5496700962       22.4012474195        5.1526616372
  C        49.2997816615       23.0687392325        4.1718412639
  C        48.7328123577       24.1078050419        3.4385813627
  C        47.4021722982       24.5092006438        3.6670155897
  C        46.6710918876       23.8601211331        4.6802971175
  C        47.2335917800       22.8152758226        5.4097022988
  C        46.7719464086       25.5868709638        2.8697083085
  C        46.7610313380       25.5573120023        1.4479519871
  C        47.2610440215       24.4422412092        0.7044845680
  C        14.8596107587        8.5701739815        0.7085741789
  C        14.8913594796        8.5968140554        3.5201808758
  C        49.1129448263       21.2034628022       10.1453295722
  C        48.5275049232       22.3648074058       10.8724563943
  C        49.2667474854       23.0255641462       11.8653284896
  C        48.6903918419       24.0600911711       12.5967992702
  C        47.3599364485       24.4567403695       12.3586233685
  C        46.6394958451       23.8117896944       11.3351509672
  C        47.2130852898       22.7759147215       10.6033524644
  C        46.7214887998       25.5317023556       13.1496384223
  C        46.7332589429       25.5281046986       14.5713368671
  C        47.2487711827       24.4289321679       15.3277259134
  C        40.6216377961       17.1211630999       15.3294542737
  C        40.6408448977       17.1693211798       12.5191342259
  C        11.8826944133       14.0864461732       10.2854918670
  C        12.4717872134       12.9104462329       10.9896911305
  C        11.7141176297       12.1773488198       11.9157438992
  C        12.2804861366       11.0947711865       12.5841623599
  C        13.6192503080       10.7208617414       12.3523671443
  C        14.3573986361       11.4363297681       11.3916337231
  C        13.7921773371       12.5176256797       10.7189666040
  C        14.2527102841        9.6240188065       13.1227743213
  C        14.2516482219        9.6440682203       14.5446132846
  C        13.7420104413       10.7531382042       15.2916620564
  C        22.5028593596        3.2411825040        5.7477833513
  C        23.2010837653        4.3432890223        5.0312391402
  C        24.1991215572        4.0587336462        4.0881714864
  C        24.8179910682        5.0951927594        3.3955663405
  C        24.4517747555        6.4353555208        3.6272939223
  C        23.4769628652        6.7117588029        4.6026354719
  C        22.8544675107        5.6771693799        5.2944333629
  C        25.0621123440        7.5389900349        2.8556493535
  C        25.0622645261        7.5275856958        1.4352290878
  C        24.3715568684        6.5273989718        0.6803114742
  C        38.3005820068       31.9267520600        5.8482101566
  C        37.5661698721       30.8379428277        5.1391774385
  C        36.6023527808       31.1447796979        4.1659216461
  C        35.9770866347       30.1275152269        3.4495032133
  C        36.2995403713       28.7759287328        3.6826656381
  C        37.2343767323       28.4765259135        4.6920585851
  C        37.8636213988       29.4927008632        5.4078719777
  C        35.6883041378       27.6871344167        2.8846638828
  C        35.7174308469       27.7032973515        1.4625167398
  C        36.4241914441       28.7048471656        0.7250469872
  C        25.7003103602        8.5950345077        0.7259538116
  C        25.6413845407        8.6167396734        3.5356422823
  C        38.3267578232       31.9606691858       10.1566819355
  C        37.6009190522       30.8881384796       10.8974351134
  C        36.6688388261       31.1987016717       11.8998277836
  C        36.0522698944       30.1821261262       12.6271452340
  C        36.3525628529       28.8278303334       12.3771486485
  C        37.2627849079       28.5273578846       11.3448839590
  C        37.8813273225       29.5405176220       10.6184193200
  C        35.7378974303       27.7304539752       13.1608503061
  C        35.7423458680       27.7256342613       14.5835501819
  C        36.4352368693       28.7161650109       15.3481825174
  C        46.1352463120       26.6207474152       15.2814532554
  C        46.0874651263       26.5800028231       12.4735728859
  C        22.4655496864        3.2539934904       10.2511475164
  C        23.1732461324        4.3613208578       10.9612882561
  C        24.1885469062        4.0722154299       11.8866382252
  C        24.8272361212        5.1009995704       12.5740718131
  C        24.4692244207        6.4466017938       12.3585847347
  C        23.4788612791        6.7293661654       11.3995721254
  C        22.8363102116        5.7007548147       10.7116003062
  C        25.1006472495        7.5400153709       13.1374343183
  C        25.0825528634        7.5274113210       14.5593587932
  C        24.3784979604        6.5288828802       15.3040775227
  C        26.5585678751       17.8250419273        5.7852900590
  C        25.2594064552       17.8821265160        5.0575047704
  C        25.0091428140       18.8842574628        4.1075308415
  C        23.8009766970       18.9086371309        3.4153881513
  C        22.8109808173       17.9347872299        3.6538862253
  C        23.0564140600       16.9565061740        4.6353245468
  C        24.2661871075       16.9263581322        5.3248054649
  C        21.5449961610       17.9238751255        2.8834550516
  C        21.5535896944       17.9087585966        1.4618125708
  C        22.7631567312       17.7851674880        0.7079204522
  C        34.4099025764       17.2114900520        5.9109764983
  C        35.7055757160       17.1423306621        5.1738204822
  C        35.8988243106       16.1824704017        4.1681927570
  C        37.0841413421       16.1580164859        3.4376055808
  C        38.1076599646       17.0925535513        3.6906071405
  C        37.9167410707       18.0306165554        4.7235249066
  C        36.7300570865       18.0601935589        5.4521698842
  C        39.3635453627       17.0991134581        2.9047144097
  C        39.3614945171       17.1238210630        1.4825445438
  C        38.1557877849       17.2546966940        0.7243471966
  C        20.3103293156       17.9318779557        0.7491977867
  C        20.3193200987       17.9228487149        3.5617110270
  C        34.4213735097       17.2271956631       10.2502449133
  C        35.7324179769       17.1559739971       10.9570724705
  C        35.9709738730       16.1679470001       11.9249241947
  C        37.1685606961       16.1538933052       12.6336574257
  C        38.1581919252       17.1275631396       12.3956567556
  C        37.9284625150       18.0878280774       11.3926880634
  C        36.7294196820       18.1058624659       10.6847632927
  C        39.4099423542       17.1509254790       13.1844181668
  C        39.3852476720       17.1517866003       14.6058280272
  C        38.1671955720       17.2660054931       15.3475959238
  C        35.1081562657       26.6479712074       15.2873070150
  C        35.1485385927       26.6588792742       12.4775465833
  C        26.5649249491       17.8262416392       10.3284659860
  C        25.2517009007       17.8760005631       11.0309264272
  C        24.9879829912       18.8823579343       11.9720195838
  C        23.7698178875       18.9089444469       12.6439763713
  C        22.7872316608       17.9303808021       12.3958811895
  C        23.0440728742       16.9502445968       11.4203470364
  C        24.2634390985       16.9205209904       10.7478705405
  C        21.5227037037       17.9134889369       13.1649654782
  C        21.5417441648       17.9013563032       14.5860417896
  C        22.7573826806       17.7810850807       15.3315488322
  C        14.0451384693       17.8316195195       10.2841923416
  C        15.3512256191       17.8948754181       11.0015721621
  C        15.6101952408       18.9062383763       11.9393249520
  C        16.8206386258       18.9307818323       12.6282350802
  C        17.8030965492       17.9466189544       12.4000402140
  C        17.5500701471       16.9610256111       11.4279223009
  C        16.3392378959       16.9320544535       10.7404158024
  C        19.0687698932       17.9279054180       13.1708784826
  C        19.0604636292       17.9218828937       14.5924266445
  C        17.8491734910       17.8247709067       15.3470426238
  C        46.8033310831       17.2207041440       10.1611538505
  C        45.5137148533       17.1634942186       10.9103272351
  C        45.3061562615       16.1889802338       11.8990225739
  C        44.1250171349       16.1747695830       12.6369184109
  C        43.1197163943       17.1354485442       12.4096431420
  C        43.3251698173       18.0902486652       11.3950299048
  C        44.5068497690       18.1081532031       10.6578470985
  C        41.8653833758       17.1479059725       13.1984552771
  C        41.8690351347       17.1377830651       14.6210808515
  C        43.0768780395       17.2257681635       15.3824747573
  C        20.3039154018       17.9276692793       15.3052452705
  C        20.2942935862       17.9061226809       12.4929523466
  C        46.7827058943       17.2293178463        5.8908867859
  C        45.4765250491       17.1174363633        5.1804324384
  C        45.2589331755       16.1178729517        4.2198816663
  C        44.0688685907       16.0857895386        3.4968104222
  C        43.0658209654       17.0496509484        3.7175524347
  C        43.2730539869       18.0174884267        4.7182810819
  C        44.4645748136       18.0564145320        5.4359060538
  C        41.8192288366       17.0708119696        2.9198258859
  C        41.8457182646       17.0958269232        1.4988072274
  C        43.0656121757       17.2036817415        0.7591600186
  C        46.1530125578       26.6371829798        0.7262018256
  C        46.1619534783       26.6559484249        3.5358418963
  C        14.0396714634       17.8282237397        5.7064973508
  C        15.3534141828       17.8965738647        5.0066583573
  C        15.6231955262       18.9166410608        4.0825472586
  C        16.8471573643       18.9521837231        3.4197439636
  C        17.8255195107       17.9665775171        3.6570565056
  C        17.5615491063       16.9729471043        4.6167112205
  C        16.3398331849       16.9370254692        5.2832909434
  C        19.0912018042       17.9452396372        2.8894270299
  C        19.0722786697       17.9303643729        1.4685432367
  C        17.8549256222       17.8284598887        0.7233013424
  C        28.7908510173       14.1181645600       10.4010046659
  C        28.1958371696       12.9400696404       11.0934770152
  C        28.9520328121       12.1538194601       11.9767748904
  C        28.3629260956       11.0703581364       12.6261784306
  C        27.0097719124       10.7452026115       12.4053995036
  C        26.2747665217       11.5117781235       11.4844190950
  C        26.8582661172       12.5982039386       10.8393191575
  C        26.3521677274        9.6503488682       13.1548114772
  C        26.3385149403        9.6674608415       14.5744425713
  C        26.8503757802       10.7720447326       15.3265192975
  C        32.1788068412       21.2385641202       10.1102769775
  C        32.7634700308       22.4041879668       10.8378938638
  C        32.0090474797       23.0754673265       11.8131107431
  C        32.5731377848       24.1136015018       12.5495930114
  C        33.9068946662       24.5115168018       12.3318776824
  C        34.6433398246       23.8581886542       11.3250679145
  C        34.0827955458       22.8139283636       10.5915918306
  C        34.5299653741       25.5896362812       13.1358762757
  C        34.5170406294       25.5637564032       14.5582213928
  C        34.0075796126       24.4494984604       15.2969609772
  C        25.7158966865        8.5905698234       15.2826480951
  C        25.7177475499        8.6064658358       12.4701497136
  C        32.0749694577       21.1930232734        5.8448251975
  C        32.6561206691       22.3588303378        5.1125332553
  C        31.9266568855       23.0108395957        4.1061934624
  C        32.5017202375       24.0538223705        3.3829011491
  C        33.8221220478       24.4726623145        3.6419823051
  C        34.5323707427       23.8349254851        4.6775311169
  C        33.9610242611       22.7901257309        5.3995414358
  C        34.4642899801       25.5558451700        2.8599519163
  C        34.4841494665       25.5465110973        1.4371565031
  C        33.9914051990       24.4414183889        0.6738657038
  C        40.6090324536       17.1026792310        0.7743996001
  C        40.5875403717       17.0892267609        3.5840433247
  C        28.6748843470       14.0293702246        5.8284811216
  C        28.0613753887       12.8884946628        5.0901171646
  C        28.8215504177       12.1606733273        4.1616649412
  C        28.2457085311       11.1111998713        3.4525502633
  C        26.8957676309       10.7628771579        3.6510361998
  C        26.1503882114       11.4760102133        4.6078347339
  C        26.7245603548       12.5287297001        5.3177864876
  C        26.2682844366        9.6742447588        2.8674713226
  C        26.2952984121        9.6812850263        1.4469193742
  C        26.8270875162       10.7804637758        0.7021518685
  C        18.1350680889        3.1808106326       10.3171799310
  C        17.4053782436        4.2778932266       11.0156086315
  C        16.3901010670        3.9992714474       11.9435422312
  C        15.7421386780        5.0391000844       12.6070382433
  C        16.0932973274        6.3829514426       12.3669492339
  C        17.0820355727        6.6526939920       11.4025707274
  C        17.7313626692        5.6155225689       10.7374971283
  C        15.4689606487        7.4905782661       13.1300473683
  C        15.4844440678        7.4899521076       14.5517632597
  C        16.1861288577        6.4964245115       15.3049285668
  C        42.9457229113       31.8593602613       10.0728234522
  C        43.6459983060       30.7717033319       10.8167542889
  C        44.5915592664       31.0930166371       11.8028091899
  C        45.1972003539       30.0874644603       12.5504898388
  C        44.8707266039       28.7344092861       12.3356282571
  C        43.9448987906       28.4200863041       11.3224124350
  C        43.3361264660       29.4252267104       10.5743441793
  C        45.4882793134       27.6551331676       13.1388440824
  C        45.4924796550       27.6808320769       14.5605313147
  C        44.8053896521       28.6888837692       15.3071457441
  C        14.8556536078        8.5625406857       15.2641408302
  C        14.8736446796        8.5623454034       12.4514718753
  C        42.9464048518       31.9614313001        5.8090039132
  C        43.6915150969       30.8853407755        5.0955071979
  C        44.6561852264       31.1912334599        4.1232654539
  C        45.2776262162       30.1716373077        3.4055102601
  C        44.9536963473       28.8213349537        3.6430471277
  C        44.0200980414       28.5236828062        4.6537220855
  C        43.3918999142       29.5404539365        5.3659319545
  C        45.5626995916       27.7239552699        2.8577799805
  C        45.5330238890       27.7173220361        1.4364896783
  C        44.8266770409       28.7075339828        0.6835392541
  C        35.0936350276       26.6378775947        0.7332243903
  C        35.0784904048       26.6131584882        3.5437449965
  C        18.1482886272        3.2467514290        5.7065990368
  C        17.4296194220        4.3435337635        4.9972677407
  C        16.4146282931        4.0522244238        4.0734739428
  C        15.7662384505        5.0828341289        3.3981168688
  C        16.1205991934        6.4281226545        3.6210378481
  C        17.1116805790        6.7115466246        4.5786052083
  C        17.7593668344        5.6826572799        5.2583776703
  C        15.4900779684        7.5238022550        2.8486047877
  C        15.4958529889        7.5070875050        1.4274678621
  C        16.1925341431        6.5053525739        0.6807410771
  H        10.6721883125       12.4657602089        3.9046024438
  H        11.6942798829       10.5508233738        2.6627484843
  H        15.3915242381       11.1686011999        4.7718895557
  H        14.3511046002       13.0714420769        6.0171429703
  H        13.3759029600       11.6309661544        1.2012239738
  H        50.3225807909       22.7488818475        3.9872945230
  H        49.3193457840       24.6232170768        2.6811399274
  H        45.6414892588       24.1606617704        4.8632323609
  H        46.6624974762       22.2898390053        6.1716005461
  H        47.6296296199       23.5758960818        1.2461889012
  H        14.8717168610        8.5881129140        4.6084885567
  H        50.2868253056       22.7027754997       12.0601755055
  H        49.2687855399       24.5755906991       13.3602722514
  H        45.6100545709       24.1089533852       11.1461666483
  H        46.6522671844       22.2537073319        9.8318158837
  H        47.6075924605       23.5518262925       14.7968359865
  H        40.6468835942       17.1431718333       11.4310776878
  H        48.6869541348       14.0951172867        7.7999049803
  H        10.6806834247       12.4665946267       12.0930829159
  H        11.6885725944       10.5244334146       13.2968039263
  H        15.3928235875       11.1583525011       11.2058043971
  H        14.3646529460       13.0869992487        9.9905431469
  H        13.3752311991       11.6217556180       14.7529952564
  H        47.9299771460       14.2184182133        9.7109479017
  H        47.7800720260       14.3740926537        6.4951824063
  H        49.0831425183       18.5525573474       10.8673953580
  H        10.4157707270       14.1343375381        7.9988986510
  H        24.4685042304        3.0199074513        3.9113089538
  H        25.5956652354        4.8778682849        2.6666429374
  H        23.1876172993        7.7448116416        4.7837178260
  H        22.0814274211        5.8773274932        6.0322243750
  H        23.8028069769        5.7710491477        1.2134075404
  H        36.3671447031       32.1887877181        3.9728270748
  H        35.2296806703       30.3715538264        2.6977157188
  H        37.4924765785       27.4364924048        4.8808747184
  H        38.6098708358       29.2666400912        6.1659505161
  H        36.9898153485       29.4542618249        1.2710534218
  H        25.6517874069        8.6045924296        4.6239403551
  H        36.4476674879       32.2434065283       12.1065271550
  H        35.3241718869       30.4304384975       13.3962202918
  H        37.5079224956       27.4865508878       11.1438252430
  H        38.6056923167       29.3114147314        9.8405450990
  H        37.0104817945       29.4737669367       14.8238352572
  H        46.1088152419       26.5873391594       11.3855359419
  H        44.6681436433       35.1160772841        7.8141251380
  H        24.4658307480        3.0331770593       12.0493517613
  H        25.6164241314        4.8716762475       13.2869399701
  H        23.1920279399        7.7644220082       11.2253473561
  H        22.0548054778        5.9142394165        9.9860438671
  H        23.8146645810        5.7742540400       14.7635728756
  H        44.9532614995       34.3895549589        9.6945343684
  H        44.9017770725       34.2067496223        6.4907015966
  H        40.6649895168       33.2079762197       10.8526791897
  H        23.1500377717        1.9572729140        8.0026787195
  H        25.7700505905       19.6400883854        3.9273223243
  H        23.6086162583       19.6897143562        2.6830581633
  H        22.3005839282       16.1972498086        4.8253525890
  H        24.4711859291       16.1582168401        6.0666888325
  H        23.7017332104       17.6608903962        1.2404001029
  H        35.1017607223       15.4709662778        3.9647266720
  H        37.2311203371       15.4064348022        2.6650664799
  H        38.6976268147       18.7612039443        4.9242847785
  H        36.5674408560       18.8012617053        6.2312875845
  H        37.2155402737       17.3784434428        1.2541142537
  H        20.3218850029       17.9572494798        4.6496989708
  H        35.2037484050       15.4216726667       12.1167935394
  H        37.3510762739       15.3851357464       13.3812925431
  H        38.6863269678       18.8450876324       11.2026513691
  H        36.5318232585       18.8638330484        9.9303697346
  H        37.2352017019       17.3971868821       14.8054674299
  H        35.1255984924       26.6832975956       11.3896619472
  H        28.5030923626       21.0813443962        7.8869593964
  H        25.7489830789       19.6360665516       12.1599491055
  H        23.5644853676       19.6915775929       13.3710312407
  H        22.2915641556       16.1894051495       11.2236329598
  H        24.4793056712       16.1526902764       10.0088931840
  H        23.6916711641       17.6541730216       14.7925107867
  H        29.0065604084       21.7133316814        9.7400637793
  H        29.1925926426       21.7050751818        6.5499938403
  H        32.0944816623       18.6260079324       10.8984755422
  H        27.3681166644       19.0296459783        8.0809057756
  H        14.8521092271       19.6665579058       12.1132074284
  H        17.0201302519       19.7190562199       13.3509492911
  H        18.3006286755       16.1949530339       11.2444431975
  H        16.1290179363       16.1583695896       10.0058790747
  H        16.9089108855       17.7147212265       14.8147459596
  H        46.0873801890       15.4549331735       12.0822369700
  H        43.9661558208       15.4098260785       13.3938376861
  H        42.5588764565       18.8411785885       11.2139644917
  H        44.6796974639       18.8600949078        9.8914149683
  H        44.0194676423       17.3434417329       14.8555366758
  H        20.2924264837       17.9376166656       11.4048808926
  H        46.0386785771       15.3812018950        4.0402944218
  H        43.9042636966       15.3108370374        2.7513008890
  H        42.5036715389       18.7659869309        4.8960352505
  H        44.6454595515       18.8237291358        6.1846677037
  H        43.9997367197       17.3032731545        1.3043827686
  H        46.1987000557       26.6824331520        4.6232910966
  H        52.7412749274       21.0626774371        8.1946384451
  H        14.8645021149       19.6749516651        3.9023988503
  H        17.0593364364       19.7461129036        2.7069338531
  H        18.3104603064       16.2062575201        4.8041135079
  H        16.1181311079       16.1593065782        6.0100034586
  H        16.9190048468       17.7212097100        1.2634163237
  H        52.3226396361       21.6737474510        6.2946153131
  H        52.0136281530       21.7026591427        9.4954532050
  H        49.0668388007       18.6075984933        5.2044762081
  H        13.2472981727       19.0162458683        7.9760960734
  H        30.0048190054       12.3891758923       12.1247825015
  H        28.9479902690       10.4591924358       13.3102826443
  H        25.2286174291       11.2685471130       11.3104062087
  H        26.2905548877       13.2108679937       10.1433460429
  H        27.2328806801       11.6360020303       14.7913941807
  H        30.9836552161       22.7585970498       11.9887948096
  H        31.9817091438       24.6319295651       13.3012296538
  H        35.6754917322       24.1546043675       11.1496301535
  H        34.6589630122       22.2866443958        9.8346995953
  H        33.6552973530       23.5787676091       14.7512953919
  H        25.7472872077        8.5977082329       11.3819928888
  H        30.9132876220       22.6769009116        3.8948393600
  H        31.9274120744       24.5594320165        2.6096709048
  H        35.5543439840       24.1450541355        4.8855554149
  H        34.5174990064       22.2770632676        6.1802822919
  H        33.6267817863       23.5641606322        1.2006670044
  H        40.5805034606       17.0443453582        4.6714667113
  H        32.5177000969       14.1551995950        8.2376667063
  H        29.8654383463       12.4278924781        4.0158576656
  H        28.8396584669       10.5423462817        2.7404954331
  H        25.1054373861       11.2162594777        4.7643084844
  H        26.1487546314       13.0983562143        6.0434767331
  H        27.1909718618       11.6504747712        1.2412405846
  H        33.2963496148       14.2301752648        6.4412681477
  H        33.4031268448       14.3713294622        9.6199396895
  H        32.0371239050       18.4850767269        5.0816039601
  H        30.2067243413       14.1362602313        8.0726360618
  H        16.1186126391        2.9626848556       12.1303224412
  H        14.9530427163        4.8194839804       13.3230174904
  H        17.3637517308        7.6856771059       11.2089847044
  H        18.5128631030        5.8183836249       10.0091342549
  H        16.7526122682        5.7390297670       14.7714356048
  H        44.8278557016       32.1400903192       11.9769989134
  H        45.9370616989       30.3411647524       13.3064535587
  H        43.6821494648       27.3780283091       11.1523149447
  H        42.5994830963       29.1898806153        9.8097068082
  H        44.2299437397       29.4365784605       14.7688391104
  H        14.8497189501        8.5455280177       11.3632562100
  H        44.8998386967       32.2339020337        3.9319064887
  H        46.0245899892       30.4128033336        2.6523126547
  H        43.7629740994       27.4839689462        4.8451557327
  H        42.6452992237       29.3176419489        6.1242740581
  H        44.2680806946       29.4703649903        1.2181121958
  H        35.0360203885       26.6251973683        4.6312651902
  H        36.6050190461       35.1338596800        8.1806628403
  H        16.1437488277        3.0126231584        3.9035573703
  H        14.9740402405        4.8559144492        2.6879124287
  H        17.3948495795        7.7470598372        4.7557757118
  H        18.5418546216        5.8931689440        5.9835391076
  H        16.7640238620        5.7551292387        1.2191380374
  H        36.2783802061       34.4822253232        6.2732719316
  H        36.3800587961       34.2094347216        9.4999368597
  H        40.5793816473       33.2018862701        5.1540656909
  H        17.4705078734        1.9469715499        7.9739520745
  H        28.8265817569       18.9767669771       12.3240294465
  H        28.6963991593       18.8338404729        3.8605578074
  H        30.5756395228       15.3596911255        3.8414105924
  H        32.2481496008       16.5739118588       12.3054153310
  H        29.9351588716       19.3016485008       14.7691777491
  H        29.8929122187       14.1557436634       13.6768917768
  H        18.8535258547        0.8691034456       12.3351225907
  H        40.5282416122       35.2291240148        3.9522506405
  H        42.3229746582       34.4181936705        3.5908113892
  H        22.0876653547        0.6920785000       12.3517184345
  H        11.5963230062       18.7130895809       12.3827408217
  H        52.2649227565       18.4313034337        3.6776771519
  H        49.2550105867       16.4767968315        3.5842807387
  H        10.1508093453       15.7982806770       12.2921783904
  H        50.8500337045       17.6927573030        3.9540477779
  H        10.0461559533       17.3948204423       12.0518783188
  H        20.2147444141        0.0021406660       12.0420113469
  H        39.1834277754       36.1242276463        3.6864312921
 Ni        30.1848405673       17.4777410346        2.8279451964
 Ni        30.6868003142       16.0178093248       -0.8351726468
 Ni        29.7650190247       17.5637867431        0.4162471149
 Ni        30.3134098534       17.5062097034       13.3279228639
  O        10.6498523368       14.3651864926        5.4857695307
  O        12.6130570448       14.6573700257        6.5838693243
  O        49.1476215015       16.8459293144        7.9896812906
  O        50.3500738714       20.9363888746        5.6482318617
  O        48.3484575898       20.5932809114        6.6659605762
  O        11.0509444625       17.0541157491        6.5006273804
  O        50.3207081963       20.8817411363       10.4068982847
  O        48.3466390591       20.5866883920        9.3270687023
  O        49.5432331891       18.2484068648       10.0683921466
  O        12.3587801429       18.6247080805        7.9996941782
  O        48.6931888631       14.1485886456        6.7512544966
  O         8.2097390069       14.2105067651        9.3227024713
  O        10.7351387545       14.5067438315       10.6643385616
  O        12.5716751959       14.5826662808        9.3285907670
  O        22.8438949253        2.0414055145        5.4879822819
  O        21.6035675552        3.5912453985        6.5906193973
  O        42.0578369323       34.1368705862        7.9791703662
  O        37.9812975422       33.1356598593        5.5720911219
  O        39.2173438949       31.5749116617        6.6655043434
  O        20.3082213804        1.0394986529        6.5018249194
  O        38.0243057369       33.1851042137       10.4154298030
  O        39.2181859585       31.5829346474        9.3273559339
  O        40.6521128599       33.7689780323       10.0602612067
  O        18.2554769541        1.3761850923        7.9967318317
  O        44.6222272255       35.1004988313        6.7588364627
  O        24.2054327647       -0.0001328756        9.3208316586
  O        22.7530261224        2.0565191789       10.5828673057
  O        21.6241081518        3.5954182379        9.3416718530
  O        27.4562357685       18.6934300133        5.4892300499
  O        26.6891246227       16.9180849843        6.6699379338
  O        30.6329154025       19.3481219339        8.0054203189
  O        33.5305776043       16.3247911037        5.6531142908
  O        34.2659022802       18.1754575700        6.7425287377
  O        29.5297764321       17.0055258989        6.5793637777
  O        33.5341773216       16.3443270072       10.5684566852
  O        34.2647421713       18.1683465564        9.4092849105
  O        31.6481289588       18.3219685703       10.0918746526
  O        30.2889456526       15.1035980579        8.0801403187
  O        28.5508765900       21.0275473325        6.8327874814
  O        28.5104526450       20.9505840696        9.3978961223
  O        27.4547440427       18.6793007550       10.6580535273
  O        26.6899416139       16.9281335086        9.4184359565
  O        13.1466647958       18.6936782977       10.5863020190
  O        13.9176626982       16.9159131342        9.4038675951
  O        50.5957835498       19.3503043282        8.0206849951
  O        47.6809939354       16.3277990782       10.4179589200
  O        46.9507499902       18.1760752363        9.3250403036
  O        11.0687461347       17.0159743470        9.4896143227
  O        47.6747982179       16.3356615614        5.6530861232
  O        46.9255487194       18.2358546995        6.6637503933
  O        49.5687682008       18.3177768298        5.9822755868
  O        10.3186465854       15.1002042074        7.9971023736
  O        52.6707242583       21.0280089838        9.2418146999
  O        12.1468056531       20.8914354703        6.6733467561
  O        13.1048484932       18.6141949761        5.3262841432
  O        13.9549068023       16.9863154838        6.6657032141
  O        29.9607513223       14.5062482454       10.7443733214
  O        28.0754630851       14.6526416636        9.4914807166
  O        32.0704299959       16.8514015169        8.0660906783
  O        30.9583664046       20.9506037934       10.3384031300
  O        32.9567675568       20.5889638854        9.3251516308
  O        29.5574983145       17.0657194398        9.5672313091
  O        30.8567534037       20.8780442749        5.5911912546
  O        32.8574811100       20.5839571973        6.6560600097
  O        31.6093319949       18.2348012806        5.9177788782
  O        28.2532926890       18.6303249257        8.0686181413
  O        32.4883282173       14.2162453670        9.3247499220
  O        32.4030433296       14.2153560985        6.8240686465
  O        29.8661193564       14.3633293402        5.5035398442
  O        27.9662136872       14.5800656704        6.7437121193
  O        17.8891602794        1.9664763026       10.6628587532
  O        18.9560894849        3.5271121514        9.4081327237
  O        39.1685136703       34.1385709199        7.9971794304
  O        43.2801393526       33.0588370266       10.3316526626
  O        42.0343228672       31.5064470534        9.2415686777
  O        20.3172062436        1.0359900673        9.4804544868
  O        43.2761032899       33.1824816598        5.5749176223
  O        42.0052005516       31.5841005954        6.5830204269
  O        40.5790285682       33.7750076721        5.9358861050
  O        22.3669183143        1.3840888981        7.9980879110
  O        36.6727606246       35.0997206386        9.2332740642
  O        16.4455746521        0.0640298859        6.6682182688
  O        17.9363849993        2.0431185148        5.3264017694
  O        18.9187430795        3.5930821448        6.6659060281
  O        29.6518232240       18.8274469976        4.0768861633
  O        29.7360604696       18.8377608795       11.9948224580
  O        31.0088283079       16.2000440176        4.0824209171
  O        31.3111146344       16.4042475336       12.0853366427
  O        30.7570458842       14.5807496391       13.8305271301
  O        29.4457085923       18.4561991036       14.7514635381
  O        39.4568561012       35.2437054669        4.0019967432
  O        19.1414401382        0.0045719944       11.9905762471
  O        41.9695476694       35.1727090551        4.0871658443
  O        21.6913723234       -0.0693392378       11.8960217000
  O        51.3649075221       18.6143976192        4.0052669863
  O        10.7506078110       18.7472630172       11.9050532266
  O        50.0793318903       16.4127042308        4.0917332910
  O         9.5246433444       16.4830838902       11.9911546945
 Zr         9.2968511882       16.0529895166        6.1822259014
 Zr        49.8358314409       16.0070646296        9.7465474493
 Zr        22.0729787274        0.0287686332        6.1895603745
 Zr        42.4606302417       35.1527265134        9.8009936212
 Zr        29.5645374107       19.0502931328        6.2498320272
 Zr        29.5645221533       19.1700195655        9.8448876801
 Zr        11.0376318365       19.0523757635        9.8277984628
 Zr        11.0435854431       19.1552445779        6.2511377012
 Zr        31.3201087969       16.1028157545        9.8399997087
 Zr        31.3349138020       15.9859348217        6.2481575041
 Zr        18.6007193193       -0.0021375826        9.7636773148
 Zr        18.5062654114       -0.0084598443        6.2134282856
 Zr        12.3011471858       16.3234607055        7.9906159220
 Zr        48.6161902919       18.8330354881        8.0101224581
 Zr        20.3138276696        2.4723036709        7.9910587869
 Zr        40.6425405999       32.6861905768        7.9781613726
 Zr        28.3108647976       16.3222608635        8.0776304623
 Zr        32.6013094968       18.8322748158        8.0225318638
  H        30.0780786467       16.4755091401        1.5340445963
  H        30.9458160761       15.1289036032       12.9826316249
