     576
 i =      183, E =     -4780.0080242817
  C        11.8586293532       14.0534282255        5.7415714232
  C        12.4560778144       12.8904887413        5.0232560972
  C        11.7046028187       12.1719508116        4.0811263425
  C        12.2809814218       11.1097647936        3.3887533304
  C        13.6213975273       10.7395954822        3.6168686105
  C        14.3543395301       11.4427510033        4.5908215136
  C        13.7814226940       12.5076813562        5.2823666335
  C        14.2609309656        9.6489530711        2.8434632885
  C        14.2561657547        9.6568221167        1.4217570711
  C        13.7431372952       10.7589916149        0.6678182819
  C        49.1266718208       21.2334375439        5.8797081181
  C        48.5498436365       22.4012865233        5.1526677212
  C        49.2998071180       23.0684753514        4.1715245209
  C        48.7328286144       24.1075453358        3.4382869223
  C        47.4023260618       24.5092606871        3.6670148701
  C        46.6714914348       23.8605746611        4.6807406515
  C        47.2339660783       22.8157192509        5.4101293225
  C        46.7720540677       25.5869055873        2.8697346129
  C        46.7610473553       25.5572273522        1.4479811065
  C        47.2609278250       24.4421065641        0.7044956469
  C        14.8600018449        8.5704182158        0.7084949755
  C        14.8917131100        8.5970015060        3.5201187418
  C        49.1130151375       21.2034931832       10.1452492972
  C        48.5276198944       22.3647966646       10.8724258762
  C        49.2667497197       23.0252719772       11.8655802144
  C        48.6904196706       24.0598120271       12.5970477680
  C        47.3601138542       24.4568301107       12.3586019528
  C        46.6398280323       23.8121635944       11.3348293428
  C        47.2133730384       22.7762829842       10.6030110926
  C        46.7216530590       25.5317577848       13.1496446351
  C        46.7333221245       25.5280505312       14.5713446518
  C        47.2486611996       24.4287973930       15.3277356116
  C        40.6190134881       17.1307677118       15.2963765378
  C        40.6319848499       17.1694347865       12.4872224827
  C        11.8827347170       14.0863399461       10.2854739470
  C        12.4718634986       12.9104270458       10.9895943841
  C        11.7144405912       12.1775598436       11.9160554527
  C        12.2809333810       11.0950417185       12.5844348468
  C        13.6195811292       10.7208977926       12.3522411452
  C        14.3574065793       11.4360347919       11.3909985726
  C        13.7920642748       12.5172613659       10.7183447289
  C        14.2531480934        9.6241624964       13.1226649162
  C        14.2520859300        9.6442970889       14.5445007013
  C        13.7424250225       10.7533508560       15.2915620544
  C        22.5066637153        3.2453767641        5.7418501220
  C        23.2077898813        4.3473962466        5.0193531593
  C        24.1984234865        4.0611442634        4.0676700316
  C        24.8211686147        5.0945644394        3.3711140947
  C        24.4710027298        6.4396866351        3.6043213306
  C        23.5030322118        6.7173201098        4.5876171739
  C        22.8757922051        5.6856891068        5.2828381313
  C        25.0870812976        7.5437023462        2.8294118693
  C        25.0764824676        7.5392260425        1.4070486599
  C        24.3830793167        6.5411438181        0.6520554681
  C        38.3031594192       31.9308837543        5.8488463937
  C        37.5741725906       30.8425317067        5.1378468012
  C        36.6170707371       31.1480775818        4.1583029123
  C        36.0000818035       30.1287780624        3.4387031515
  C        36.3255066833       28.7794303805        3.6779659601
  C        37.2533539015       28.4814012492        4.6935369656
  C        37.8746333840       29.4994024132        5.4117883300
  C        35.7216307820       27.6884968078        2.8816032829
  C        35.7524606348       27.7018211929        1.4603954834
  C        36.4603765648       28.7017732608        0.7218787100
  C        25.7072769444        8.6104737001        0.6936526057
  C        25.6832362754        8.6161295360        3.5055549856
  C        38.3280863738       31.9618820406       10.1555468784
  C        37.6052317973       30.8882296738       10.8957716083
  C        36.6764214258       31.1963650374       11.9015134836
  C        36.0659434450       30.1774122426       12.6301037153
  C        36.3699121196       28.8248294286       12.3766059519
  C        37.2756383268       28.5266382937       11.3401672890
  C        37.8883176297       29.5421199799       10.6128418623
  C        35.7624187642       27.7259618233       13.1616313532
  C        35.7735523215       27.7208886053       14.5836510064
  C        36.4699117487       28.7112857508       15.3451321330
  C        46.1353165985       26.6206882947       15.2814729073
  C        46.0877960993       26.5801654299       12.4735741098
  C        22.4685790169        3.2546407902       10.2467141079
  C        23.1815986870        4.3637477630       10.9468218369
  C        24.1948123752        4.0783582891       11.8755131999
  C        24.8352645501        5.1105768672       12.5559230973
  C        24.4809293139        6.4555090629       12.3299955810
  C        23.4949218931        6.7340616650       11.3652240265
  C        22.8506175276        5.7023064334       10.6841557545
  C        25.1088198246        7.5529077390       13.1054657980
  C        25.0872937190        7.5434429906       14.5278231342
  C        24.3863255207        6.5445733625       15.2751401068
  C        26.5568476990       17.8233580333        5.7795049267
  C        25.2601767641       17.8752468566        5.0466297873
  C        24.9950423840       18.8959655467        4.1204129345
  C        23.7867312447       18.9193490412        3.4284624031
  C        22.8101176507       17.9271669403        3.6453788117
  C        23.0700461630       16.9288419616        4.6023140403
  C        24.2805014843       16.8993382443        5.2909703082
  C        21.5429787577       17.9199801026        2.8762332318
  C        21.5531464856       17.9167257941        1.4549680834
  C        22.7644577738       17.8041167080        0.7023017290
  C        34.3809078287       17.2859254712        5.8047181997
  C        35.6919688105       17.2097883898        5.0960947175
  C        35.9103240939       16.2244999233        4.1204509605
  C        37.1064311529       16.1903336939        3.4101436816
  C        38.1163090972       17.1420303590        3.6536094480
  C        37.9040791421       18.1019787006        4.6608403172
  C        36.7058199039       18.1395762079        5.3708887863
  C        39.3745171878       17.1419642653        2.8731500594
  C        39.3670123802       17.1551713630        1.4512711841
  C        38.1589137079       17.2860506725        0.6956900566
  C        20.3106629507       17.9407255862        0.7414453699
  C        20.3172944144       17.9124735464        3.5541124670
  C        34.4766743289       17.2514040532       10.1058710813
  C        35.7672874163       17.1908286653       10.8516886088
  C        35.9664412117       16.2178042515       11.8427438720
  C        37.1447730593       16.2009477865       12.5839504440
  C        38.1543196677       17.1559201413       12.3542936124
  C        37.9587416261       18.1077841216       11.3357093045
  C        36.7777402024       18.1304799609       10.5978381910
  C        39.4009946594       17.1647028606       13.1528744206
  C        39.3805680388       17.1678093996       14.5744826618
  C        38.1651551026       17.2910461396       15.3189474615
  C        35.1414613191       26.6437499483       15.2892790215
  C        35.1713471299       26.6546850779       12.4801703094
  C        26.5736497964       17.8250041633       10.3209973233
  C        25.2595999176       17.8736056782       11.0270428241
  C        24.9960276246       18.8861685009       11.9615560634
  C        23.7770208003       18.9189334929       12.6324314719
  C        22.7939532028       17.9392052147       12.3908133238
  C        23.0522807989       16.9504172639       11.4245052983
  C        24.2721471378       16.9154420069       10.7522606267
  C        21.5279202737       17.9281378524       13.1583871036
  C        21.5447386401       17.9187892515       14.5794045030
  C        22.7600734498       17.8040502031       15.3261472309
  C        14.0459770435       17.8327142008       10.2828995999
  C        15.3536183633       17.8991636284       10.9974595339
  C        15.6145219252       18.9156278223       11.9291075066
  C        16.8263419830       18.9437131094       12.6154673400
  C        17.8079909826       17.9579927440       12.3909943927
  C        17.5532331947       16.9672758056       11.4246256829
  C        16.3410736267       16.9349478275       10.7394170838
  C        19.0737257681       17.9419773236       13.1620755906
  C        19.0635768343       17.9362393916       14.5835023349
  C        17.8513424081       17.8376820572       15.3365163051
  C        46.8032404813       17.2170950289       10.1551970809
  C        45.5086959205       17.1533111349       10.8924835830
  C        45.2919459168       16.1682122902       11.8680916803
  C        44.1066178168       16.1518412448       12.5984114586
  C        43.1092167035       17.1211030415       12.3753224603
  C        43.3218891865       18.0840676967       11.3705772904
  C        44.5075113049       18.1038829749       10.6408819472
  C        41.8565950683       17.1396873021       13.1642486729
  C        41.8646674966       17.1345756452       14.5860224375
  C        43.0756979444       17.2173480536       15.3428790621
  C        20.3061581020       17.9420384793       15.2974974528
  C        20.2999691362       17.9195402164       12.4853951936
  C        46.7836910013       17.2334464165        5.8843610965
  C        45.4821456933       17.1319482188        5.1615391698
  C        45.2631308638       16.1346000758        4.1986986115
  C        44.0764223833       16.1093269021        3.4691084663
  C        43.0771066186       17.0789608860        3.6831455541
  C        43.2875269180       18.0475856956        4.6828218446
  C        44.4749443584       18.0787003202        5.4081616061
  C        41.8293046287       17.1020644920        2.8857130502
  C        41.8509886126       17.1135247479        1.4639306744
  C        43.0693201159       17.2056225988        0.7198122228
  C        46.1530673046       26.6371143074        0.7262232739
  C        46.1621197126       26.6560438155        3.5358443334
  C        14.0396035600       17.8269665093        5.7050402279
  C        15.3523118133       17.8924869758        5.0020272806
  C        15.6236649054       18.9141635073        4.0800997136
  C        16.8468211018       18.9483501226        3.4155400626
  C        17.8232116721       17.9596374381        3.6484304485
  C        17.5572236060       16.9633331150        4.6048038397
  C        16.3363991080       16.9290038206        5.2734439393
  C        19.0894132096       17.9401583532        2.8809611544
  C        19.0719503129       17.9340536336        1.4598481212
  C        17.8553666645       17.8361215546        0.7127360471
  C        28.8187274280       14.0862983968       10.2878847229
  C        28.2139405167       12.9207139534       10.9950987942
  C        28.9328720678       12.2150302781       11.9712295027
  C        28.3414905174       11.1447055310       12.6384655939
  C        27.0168544953       10.7546485919       12.3536715851
  C        26.3191871793       11.4442327662       11.3449374991
  C        26.9073667750       12.5155634512       10.6777606782
  C        26.3535800480        9.6703689288       13.1150508796
  C        26.3293075362        9.6919919949       14.5365405873
  C        26.8215158938       10.8045887749       15.2890618267
  C        32.1763343435       21.2362047091       10.1485344556
  C        32.7728334737       22.3972180536       10.8728308495
  C        32.0241349949       23.0763784108       11.8460713003
  C        32.5937502401       24.1187181762       12.5708567578
  C        33.9277065647       24.5087429550       12.3438241873
  C        34.6595098323       23.8468599845       11.3400141669
  C        34.0920372647       22.7998024993       10.6165651077
  C        34.5561598331       25.5861727409       13.1415318577
  C        34.5477900830       25.5599900053       14.5631865289
  C        34.0357920609       24.4474774674       15.3029221327
  C        25.7162789506        8.6103005066       15.2487133434
  C        25.7266448884        8.6169120504       12.4356618212
  C        32.0978962643       21.2414274295        5.8846430653
  C        32.6878336221       22.3944622267        5.1457253683
  C        31.9520617531       23.0506031806        4.1464817762
  C        32.5329455322       24.0779528923        3.4068196777
  C        33.8615963329       24.4790845905        3.6489178377
  C        34.5788722565       23.8368620976        4.6766521586
  C        34.0039113208       22.8033529097        5.4112325226
  C        34.5030170717       25.5572280148        2.8618534422
  C        34.5187191549       25.5457581014        1.4399726177
  C        34.0202961742       24.4415577419        0.6796594760
  C        40.6122092255       17.1220235590        0.7414114845
  C        40.5984373242       17.1334566918        3.5519720685
  C        28.7312143544       14.0624573490        5.7456962804
  C        28.1239226335       12.9141634316        5.0133734208
  C        28.8508104274       12.2297085236        4.0268639624
  C        28.2701191877       11.1679931336        3.3383442613
  C        26.9464795988       10.7655434177        3.6083739264
  C        26.2378969860       11.4374954789        4.6223711006
  C        26.8167332452       12.4989348981        5.3143017387
  C        26.3040273476        9.6780316327        2.8345044854
  C        26.3041862617        9.6968152818        1.4127540659
  C        26.8073259461       10.8075240318        0.6647058334
  C        18.1355125969        3.1809761406       10.3169990583
  C        17.4060051979        4.2781674914       11.0155990686
  C        16.3900642580        3.9996460993       11.9428168167
  C        15.7421467683        5.0395130669       12.6063190182
  C        16.0941338552        6.3832537572       12.3669310038
  C        17.0837588273        6.6529612454       11.4034791610
  C        17.7330367414        5.6157204814       10.7384300433
  C        15.4696223410        7.4908536799       13.1299909637
  C        15.4850006577        7.4902660614       14.5517047472
  C        16.1865300046        6.4966332101       15.3048695634
  C        42.9459519323       31.8596102410       10.0728501560
  C        43.6463068849       30.7719148073       10.8168514479
  C        44.5919471626       31.0932030612       11.8028153144
  C        45.1976147673       30.0876280024       12.5504833475
  C        44.8710517558       28.7345938797       12.3356832410
  C        43.9451230160       28.4202863635       11.3225647356
  C        43.3363477718       29.4254566947       10.5745305391
  C        45.4885670885       27.6552559990       13.1388670298
  C        45.4926882893       27.6808613834       14.5605559616
  C        44.8055843365       28.6889233445       15.3071425051
  C        14.8560451106        8.5627719479       15.2640606169
  C        14.8743303504        8.5625959763       12.4513941398
  C        42.9463985201       31.9615699205        5.8089978853
  C        43.6915695897       30.8853946622        5.0954598461
  C        44.6562394836       31.1912797000        4.1232428416
  C        45.2777365176       30.1716995550        3.4054827965
  C        44.9537915058       28.8214194920        3.6430394054
  C        44.0202157883       28.5237266526        4.6537131751
  C        43.3920105941       29.5405174403        5.3659050733
  C        45.5628173229       27.7240244159        2.8577896137
  C        45.5330932787       27.7172737807        1.4364993623
  C        44.8268327362       28.7075381677        0.6835353582
  C        35.1287541965       26.6351993213        0.7341492918
  C        35.1156947123       26.6151781219        3.5438075130
  C        18.1486062757        3.2469900464        5.7064424245
  C        17.4299188108        4.3438207357        4.9972475779
  C        16.4145996186        4.0525147860        4.0738143818
  C        15.7662705797        5.0831420051        3.3984338023
  C        16.1210583786        6.4283777370        3.6209526635
  C        17.1125750860        6.7117537404        4.5780699648
  C        17.7602936294        5.6828754311        5.2578497205
  C        15.4904984807        7.5240583172        2.8485168576
  C        15.4962349685        7.5073133059        1.4273764148
  C        16.1929016581        6.5055399147        0.6806839484
  H        10.6726034524       12.4663468063        3.9038009141
  H        11.6948140097       10.5515418447        2.6619185238
  H        15.3912159764       11.1678164710        4.7729336331
  H        14.3507064297       13.0704847847        6.0182628383
  H        13.3763615783       11.6312464663        1.2010758651
  H        50.3224824039       22.7483824752        3.9867019410
  H        49.3192241995       24.6227150274        2.6805759205
  H        45.6420596786       24.1614747422        4.8640396254
  H        46.6630595679       22.2906117131        6.1723938928
  H        47.6294062223       23.5757025157        1.2461759603
  H        14.8721329270        8.5882497746        4.6084275898
  H        50.2867103522       22.7022476888       12.0606430574
  H        49.2687504692       24.5751058769       13.3607062559
  H        45.6105273412       24.1096419724       11.1455721441
  H        46.6526425194       22.2543808841        9.8312064513
  H        47.6073974637       23.5516504885       14.7968587241
  H        40.6365970906       17.1413613563       11.3992718030
  H        48.6869774779       14.0952123895        7.8000248845
  H        10.6811167926       12.4669594408       12.0937715105
  H        11.6892225228       10.5248816761       13.2973845606
  H        15.3926984587       11.1578249027       11.2047602209
  H        14.3643594820       13.0863434247        9.9895583356
  H        13.3757655752       11.6220288890       14.7529157766
  H        47.9301583793       14.2184174656        9.7109273422
  H        47.7798794787       14.3739051979        6.4952831436
  H        49.0825533586       18.5521476606       10.8669710482
  H        10.4156929122       14.1342908016        7.9986659395
  H        24.4612139338        3.0213982890        3.8857299790
  H        25.5919153384        4.8685578537        2.6373705977
  H        23.2214400145        7.7515224582        4.7747426108
  H        22.1095839493        5.8944569870        6.0256324444
  H        23.8166980928        5.7828764404        1.1849821020
  H        36.3818312646       32.1916906871        3.9633212382
  H        35.2572106222       30.3683814102        2.6810848171
  H        37.5117700568       27.4418796093        4.8844043962
  H        38.6167246122       29.2780160976        6.1751562834
  H        37.0273968977       29.4508093799        1.2669323279
  H        25.7106591722        8.5969947171        4.5935898780
  H        36.4540566229       32.2404803224       12.1098472837
  H        35.3405284001       30.4219277107       13.4028989076
  H        37.5219666273       27.4864769995       11.1373472237
  H        38.6104240994       29.3168118317        9.8318504871
  H        37.0451941894       29.4673162360       14.8185424946
  H        46.1092641286       26.5876150858       11.3855401856
  H        44.6681879901       35.1161964592        7.8142387611
  H        24.4682642247        3.0397278428       12.0470186336
  H        25.6223567894        4.8847368593       13.2721808597
  H        23.2123134281        7.7687631063       11.1822498888
  H        22.0714812608        5.9123468266        9.9551317915
  H        23.8220275332        5.7890066378       14.7364245016
  H        44.9533151559       34.3898187162        9.6947633035
  H        44.9020208843       34.2069806940        6.4906682828
  H        40.6656310748       33.2089272219       10.8530490064
  H        23.1502576742        1.9582629275        8.0003926937
  H        25.7407088403       19.6717308860        3.9615779061
  H        23.5826955149       19.7147909355        2.7149347799
  H        22.3244347106       16.1555061556        4.7752466146
  H        24.4954398551       16.1175451972        6.0156671381
  H        23.7029039888       17.6852581617        1.2360893775
  H        35.1244934962       15.4964137435        3.9325442524
  H        37.2755903772       15.4206233453        2.6602316321
  H        38.6769227168       18.8428490289        4.8551629787
  H        36.5252615214       18.8963273284        6.1308990781
  H        37.2210454630       17.4168722528        1.2279366730
  H        20.3191696028       17.9379842960        4.6423564032
  H        35.1786709754       15.4913060982       12.0275316570
  H        37.2981223007       15.4409453647       13.3469282268
  H        38.7302367987       18.8532723908       11.1542620166
  H        36.6075418948       18.8824135776        9.8308642613
  H        37.2323894300       17.4240196834       14.7780028768
  H        35.1431271901       26.6790419368       11.3924455262
  H        28.4886389824       21.1381388140        7.9775734950
  H        25.7591967298       19.6392889733       12.1437874718
  H        23.5712520772       19.7078374558       13.3526739270
  H        22.3004565603       16.1872140852       11.2342649731
  H        24.4892373695       16.1410882825       10.0204003682
  H        23.6948627294       17.6845814951       14.7865578068
  H        29.0145598661       21.7097138479        9.7763789535
  H        29.1019159132       21.8055806615        6.5967797058
  H        32.0815871052       18.5177372831       10.9106109040
  H        27.3497518065       19.0989603938        8.0835422916
  H        14.8567436288       19.6768199747       12.1005009296
  H        17.0272068445       19.7355632490       13.3339011729
  H        18.3031943491       16.1999155968       11.2440710229
  H        16.1293907099       16.1573723332       10.0094053704
  H        16.9116414432       17.7298457971       14.8027731840
  H        46.0697639771       15.4299119333       12.0484529672
  H        43.9390933433       15.3813080257       13.3477594457
  H        42.5593819066       18.8397921843       11.1937284322
  H        44.6891733889       18.8620407356        9.8827616843
  H        44.0173538503       17.3234791806       14.8118636094
  H        20.2991933473       17.9479404357       11.3972364853
  H        46.0383293801       15.3919130756        4.0239763744
  H        43.9112733292       15.3333920957        2.7247260518
  H        42.5228773656       18.8020227094        4.8559228109
  H        44.6557672388       18.8455662313        6.1574266821
  H        44.0060625393       17.3021760394        1.2610517008
  H        46.1990159409       26.6826357444        4.6232869944
  H        52.7412157523       21.0626516462        8.1946646200
  H        14.8669896886       19.6752817481        3.9032584291
  H        17.0600107315       19.7442132946        2.7051849614
  H        18.3039207442       16.1936533241        4.7888154481
  H        16.1138680939       16.1496032363        5.9981312943
  H        16.9187946806       17.7270560733        1.2513645956
  H        52.3224974446       21.6735624237        6.2945419031
  H        52.0135112516       21.7025468760        9.4954599104
  H        49.0676155381       18.6078630242        5.2036525785
  H        13.2473223906       19.0162754427        7.9753882348
  H        29.9519172298       12.5219220622       12.1956634644
  H        28.9030572970       10.5972004486       13.3922532301
  H        25.2949749061       11.1555764014       11.1179133024
  H        26.3638614946       13.0681118121        9.9153414820
  H        27.1852182832       11.6784763548       14.7567995840
  H        30.9998207731       22.7618689264       12.0303236453
  H        32.0079090603       24.6448084576       13.3214074789
  H        35.6922676883       24.1383455583       11.1600822516
  H        34.6620432725       22.2640119910        9.8610802554
  H        33.6775834536       23.5787457418       14.7580153793
  H        25.7645577956        8.5987928529       11.3478927252
  H        30.9291448268       22.7335631987        3.9551621068
  H        31.9569493854       24.5872309223        2.6372357742
  H        35.6071589726       24.1360805724        4.8688075807
  H        34.5636482459       22.2845176939        6.1859766189
  H        33.6495552591       23.5682475848        1.2086476542
  H        40.5919824956       17.0986410217        4.6397985302
  H        32.5386092988       14.1785817851        8.1378771493
  H        29.8713374704       12.5393635039        3.8143962955
  H        28.8417727169       10.6345473579        2.5822252636
  H        25.2137464279       11.1396782863        4.8377558201
  H        26.2667977924       13.0335549976        6.0852259661
  H        27.1604717754       11.6844272306        1.1989003421
  H        33.3366644009       14.3218981312        6.3586921727
  H        33.4094926784       14.3822146539        9.5288380850
  H        32.0361612314       18.6113824924        5.0308120364
  H        30.2393662496       14.1972554560        7.9748674380
  H        16.1179863998        2.9631025113       12.1289741414
  H        14.9525238678        4.8200086599       13.3217520952
  H        17.3663225317        7.6858597508       11.2106818851
  H        18.5153181107        5.8184881523       10.0108756967
  H        16.7530097911        5.7392513131       14.7713452606
  H        44.8283004208       32.1402820100       11.9769416511
  H        45.9375566444       30.3413441430       13.3063671321
  H        43.6822969884       27.3782366228       11.1525348094
  H        42.5996216542       29.1901892911        9.8099499143
  H        44.2303096239       29.4367303841       14.7688059958
  H        14.8505366838        8.5457655278       11.3631766354
  H        44.8998827230       32.2339586093        3.9319116129
  H        46.0247072108       30.4129084253        2.6523018096
  H        43.7631597114       27.4839995055        4.8451632794
  H        42.6454593985       29.3177640760        6.1243116314
  H        44.2683567018       29.4704473029        1.2181240583
  H        35.0735790704       26.6296283712        4.6312527652
  H        36.6051077137       35.1340641845        8.1806941023
  H        16.1434188851        3.0129358778        3.9042419901
  H        14.9738488334        4.8562763566        2.6884643085
  H        17.3962072008        7.7472094318        4.7548145947
  H        18.5432676966        5.8933186663        5.9825142545
  H        16.7643538675        5.7553116267        1.2191178312
  H        36.2784547702       34.4826592426        6.2732358325
  H        36.3811614156       34.2091064707        9.4997345712
  H        40.5806463615       33.2028484883        5.1536190618
  H        17.4707604789        1.9475422420        7.9740480483
  H        29.1774529125       19.2954040524       12.5068605122
  H        29.9003594608       19.6259050997        3.2885318049
  H        30.6475098147       15.3633589061        3.7141315191
  H        31.4188546414       15.5682672674       12.3183430456
  H        28.2281223368       17.6162313535       14.4962125266
  H        29.7622176222       15.6404287844       14.6387621632
  H        31.7272277616       19.4168380933        1.6695810005
  H        33.3639446813       15.8255862151        1.2729170737
  H        28.5353237995       14.6819794995        1.8806204331
  H        32.5093358208       18.6745107158       15.4768660124
  H        18.8536349052        0.8690514409       12.3351940487
  H        40.5280529200       35.2291209666        3.9520891728
  H        42.3241337835       34.4192571517        3.5902078789
  H        22.0875530505        0.6919761746       12.3520441207
  H        11.5972146631       18.7124985672       12.3824003802
  H        52.2647724977       18.4315866544        3.6773341320
  H        49.2552531682       16.4764784292        3.5841816077
  H        10.1499539515       15.7982724754       12.2928713741
  H        50.8500676144       17.6925618254        3.9540167053
  H        10.0460140863       17.3946480318       12.0519250116
  H        20.2148386273        0.0021852705       12.0419828000
  H        39.1837169794       36.1243450343        3.6861167280
 Ni        30.6129246046       17.5222716886        2.7421669124
 Ni        31.7931325737       16.4425403571       -0.6666913171
 Ni        30.0974004441       18.3070798725        0.0876025729
 Ni        30.1007450837       17.2739127556       12.9172986595
  O        10.6498685268       14.3651707764        5.4858307033
  O        12.6130823425       14.6574063372        6.5839002093
  O        49.1476703715       16.8458875927        7.9896383157
  O        50.3501284542       20.9361839096        5.6481744900
  O        48.3484767765       20.5932978827        6.6658685203
  O        11.0510785117       17.0539014978        6.5005963983
  O        50.3207671075       20.8816439107       10.4068832624
  O        48.3466656077       20.5866701603        9.3270438625
  O        49.5434527886       18.2484069924       10.0682885697
  O        12.3588611452       18.6246507151        7.9997000809
  O        48.6931029544       14.1487243525        6.7512514784
  O         8.2098204454       14.2104658533        9.3225194170
  O        10.7351949703       14.5067412969       10.6644159065
  O        12.5716658266       14.5827533979        9.3285746462
  O        22.8448811287        2.0433551861        5.4858292709
  O        21.6074390689        3.5936347967        6.5863457205
  O        42.0583083228       34.1375021644        7.9789768483
  O        37.9819584588       33.1392065973        5.5727607191
  O        39.2180709930       31.5764859640        6.6666613403
  O        20.3085441796        1.0396019542        6.5017528307
  O        38.0245881739       33.1856209618       10.4151353807
  O        39.2191598281       31.5837058757        9.3263767498
  O        40.6522783775       33.7693272711       10.0602312767
  O        18.2555166862        1.3764829093        7.9967144455
  O        44.6222066744       35.1006003419        6.7588897274
  O        24.2054496480       -0.0000551609        9.3207449243
  O        22.7531671866        2.0575115070       10.5826502062
  O        21.6237274769        3.5947532738        9.3395613483
  O        27.4533383760       18.6931796418        5.4858837046
  O        26.6858951610       16.9197230809        6.6666843590
  O        30.6454041434       19.4137121105        8.0049716844
  O        33.5002837616       16.4129263586        5.4973065895
  O        34.2305549858       18.2394022912        6.6461958998
  O        29.5036169770       17.0847510221        6.5011364086
  O        33.6227704092       16.3277965763       10.3176294988
  O        34.3073326582       18.2480930607        9.3218754197
  O        31.6564980270       18.3142056024       10.0596061214
  O        30.3228148387       15.1646864039        7.9852863995
  O        28.5105698564       21.0957675300        6.9055354231
  O        28.5136300221       20.9602257590        9.4104781003
  O        27.4586650066       18.6787824946       10.6538810921
  O        26.6950272675       16.9261315840        9.4107204538
  O        13.1469520344       18.6937475983       10.5861473677
  O        13.9180209216       16.9159003728        9.4038769867
  O        50.5958887016       19.3502487650        8.0204862595
  O        47.6822342115       16.3272862372       10.4173571825
  O        46.9520448492       18.1762238730        9.3239139085
  O        11.0690353836       17.0158772780        9.4895637792
  O        47.6737086682       16.3360430240        5.6520431802
  O        46.9251699462       18.2358808912        6.6629146091
  O        49.5684594387       18.3176923195        5.9820184304
  O        10.3184689321       15.1001561646        7.9971143685
  O        52.6707341492       21.0280024582        9.2418239099
  O        12.1467925620       20.8913287635        6.6732989600
  O        13.1052515813       18.6141102467        5.3261348661
  O        13.9554068092       16.9863663097        6.6653877144
  O        30.0077239919       14.4376650014       10.5792399288
  O        28.0808191172       14.6526501256        9.4056037965
  O        32.1015555445       16.9194344616        7.9318306967
  O        30.9610139209       20.9477549052       10.4060939303
  O        32.9431658738       20.6045819142        9.3351392898
  O        29.5649843256       17.0767066415        9.4883343750
  O        30.8725085487       20.9553890710        5.6632886748
  O        32.8764552135       20.5933967356        6.6626604308
  O        31.5528604981       18.3150451550        5.8202012454
  O        28.2286578929       18.6865629114        8.0630939011
  O        32.4965673412       14.2144327001        9.2300924452
  O        32.4418940238       14.2913218954        6.7357536265
  O        29.9095919391       14.4310403584        5.4123450534
  O        28.0317557795       14.5939846073        6.6727360282
  O        17.8892762700        1.9666301980       10.6627891695
  O        18.9562805709        3.5271678194        9.4078847712
  O        39.1686248802       34.1388581239        7.9972219109
  O        43.2802619351       33.0589980340       10.3317654012
  O        42.0345594086       31.5064879527        9.2416539352
  O        20.3175950417        1.0366772053        9.4795200866
  O        43.2760424276       33.1824793360        5.5748504423
  O        42.0052870551       31.5840995921        6.5830393933
  O        40.5791926168       33.7751523112        5.9360119584
  O        22.3673771839        1.3846657858        7.9976237589
  O        36.6727824596       35.0998073021        9.2333214597
  O        16.4455244330        0.0643927319        6.6683580713
  O        17.9363413193        2.0433707544        5.3264194002
  O        18.9191094196        3.5931688674        6.6657775229
  O        29.2733035875       19.6410375136        4.0712990353
  O        29.8193724214       18.8468539431       11.9222287519
  O        31.0818548213       16.1947708586        3.9881282293
  O        31.3883056579       16.4103712061       11.8209345346
  O        32.9525088007       16.6367196422        0.9250705832
  O        29.3165493849       14.8542042966        1.3303631232
  O        30.5408732576       15.8286387273       14.0757539803
  O        31.7417871010       18.3249622233       14.9886736861
  O        30.7848834175       19.1957012326        1.7610437487
  O        29.0696813774       18.0927216949       14.3985903858
  O        39.4568397996       35.2438210136        4.0019400163
  O        19.1414893544        0.0045271599       11.9905502048
  O        41.9696442499       35.1728825686        4.0871320183
  O        21.6913213061       -0.0692857290       11.8959788801
  O        51.3648279260       18.6143742822        4.0052705857
  O        10.7513478061       18.7471151429       11.9050192453
  O        50.0795555291       16.4127182427        4.0917172575
  O         9.5242065520       16.4831807026       11.9912128357
 Zr         9.2966740079       16.0528699358        6.1822549506
 Zr        49.8364259705       16.0069347506        9.7465579623
 Zr        22.0736248422        0.0301173561        6.1890070743
 Zr        42.4608290144       35.1538209305        9.8010672488
 Zr        29.5464644310       19.1474483444        6.3105937215
 Zr        29.5655027552       19.1657265206        9.8298888909
 Zr        11.0376493064       19.0523409735        9.8278744125
 Zr        11.0435933130       19.1550831325        6.2511537299
 Zr        31.3668589179       16.1050279646        9.7250565574
 Zr        31.3364031905       16.0529337835        6.1599953918
 Zr        18.6012654143       -0.0011066113        9.7633487543
 Zr        18.5064859179       -0.0074153461        6.2138561807
 Zr        12.3012625005       16.3232606536        7.9905841377
 Zr        48.6163821666       18.8330868310        8.0097714121
 Zr        20.3155309614        2.4737368828        7.9895660332
 Zr        40.6435931321       32.6873965844        7.9783707685
 Zr        28.3171814258       16.3370852208        8.0374705203
 Zr        32.6305718842       18.8735537146        8.0112427210
  H        29.5229462812       17.4418639719        1.3696351631
  H        28.4477735490       19.1968822803        3.7943559069
  H        29.4819255385       15.8233244500        1.4341340813
  H        32.2276153326       16.8811074097        1.6201125097
