     569
 i =      107, E =     -4729.5021799342
  C        11.8588452156       14.0534178347        5.7415389177
  C        12.4563176615       12.8905692638        5.0231941497
  C        11.7046642334       12.1715953895        4.0815241556
  C        12.2810872662       11.1094065926        3.3892046580
  C        13.6216859457       10.7396522266        3.6169312785
  C        14.3548387647       11.4433200389        4.5903426065
  C        13.7819068749       12.5082759633        5.2818424944
  C        14.2611555111        9.6489303450        2.8435587030
  C        14.2562388139        9.6567476076        1.4218594242
  C        13.7432009979       10.7589342830        0.6679594428
  C        49.1267455962       21.2333714225        5.8796984191
  C        48.5499260015       22.4012938073        5.1527288119
  C        49.2998312575       23.0683403649        4.1714394828
  C        48.7328908538       24.1074347029        3.4381942579
  C        47.4024642130       24.5093515916        3.6670366350
  C        46.6717009289       23.8608425749        4.6809452269
  C        47.2341577765       22.8159865427        5.4103527656
  C        46.7721727421       25.5869578110        2.8697066508
  C        46.7612129462       25.5573256640        1.4479431997
  C        47.2612982288       24.4423237078        0.7044132983
  C        14.8599349495        8.5702807471        0.7085857757
  C        14.8919812496        8.5969999508        3.5202010103
  C        49.1131448674       21.2035184123       10.1452876589
  C        48.5278464583       22.3650104005       10.8722345736
  C        49.2668943733       23.0252491625       11.8656131022
  C        48.6906362581       24.0598408917       12.5970687142
  C        47.3604457972       24.4571413213       12.3584296955
  C        46.6403216212       23.8128451754       11.3342920142
  C        47.2138080936       22.7769350010       10.6024713462
  C        46.7219283594       25.5319878556       13.1495382487
  C        46.7335583727       25.5282263530       14.5712503944
  C        47.2490833992       24.4290649813       15.3276502137
  C        40.6176643698       17.0684780170       15.3060301913
  C        40.6290221014       17.1076687249       12.4955300327
  C        11.8828414330       14.0863429346       10.2855350167
  C        12.4719561420       12.9105254192       10.9897375189
  C        11.7144379977       12.1774916806       11.9159976002
  C        12.2809293078       11.0949870773       12.5843903763
  C        13.6196609920       10.7209939000       12.3523996608
  C        14.3576178683       11.4363856622       11.3914473609
  C        13.7923016832       12.5176217483       10.7187792842
  C        14.2531753816        9.6241889403       13.1227974972
  C        14.2520138334        9.6442242318       14.5446337316
  C        13.7424751774       10.7533254946       15.2917058800
  C        22.5068713448        3.2440410008        5.7476629983
  C        23.2104270309        4.3484229635        5.0352082681
  C        24.2048718250        4.0670288903        4.0867756545
  C        24.8265453105        5.1050779280        3.3975191679
  C        24.4691667138        6.4470570652        3.6359549919
  C        23.4991598291        6.7199334293        4.6178164988
  C        22.8735122234        5.6837533520        5.3061091049
  C        25.0797560619        7.5531143064        2.8633094895
  C        25.0718453792        7.5450935193        1.4415552636
  C        24.3791471532        6.5460848928        0.6866184625
  C        38.2978511387       31.9280034252        5.8516468383
  C        37.5558704901       30.8402180240        5.1498796650
  C        36.5907764784       31.1487491521        4.1785283350
  C        35.9592415075       30.1321403319        3.4671503993
  C        36.2771697492       28.7801487816        3.7033360432
  C        37.2116191056       28.4791043524        4.7124573202
  C        37.8471391005       29.4946975025        5.4234116402
  C        35.6653169778       27.6928624789        2.9042541697
  C        35.7048290664       27.7072587956        1.4824605960
  C        36.4179319618       28.7075179117        0.7491789990
  C        25.7066927755        8.6134386146        0.7295789977
  C        25.6693312561        8.6279014228        3.5411598226
  C        38.3299315722       31.9605017105       10.1602883021
  C        37.6123801261       30.8877703997       10.9090511277
  C        36.6792898813       31.1976059958       11.9107769787
  C        36.0684354851       30.1809987580       12.6431171227
  C        36.3753737631       28.8270698211       12.3989010617
  C        37.2891896812       28.5272482979       11.3695885589
  C        37.9017534962       29.5403475927       10.6381010700
  C        35.7598416475       27.7289694029       13.1810755296
  C        35.7530051234       27.7257353016       14.6038427818
  C        36.4393841232       28.7175022229       15.3725314623
  C        46.1353698079       26.6207471309       15.2814200853
  C        46.0879165023       26.5803529102       12.4735307620
  C        22.4686666502        3.2565506916       10.2537631930
  C        23.1805378363        4.3637302307       10.9643382056
  C        24.1904056382        4.0735247734       11.8959316485
  C        24.8334177700        5.1009789446       12.5827707750
  C        24.4876552103        6.4493114337       12.3618197255
  C        23.5026292583        6.7328342325       11.3968631304
  C        22.8553151771        5.7055556758       10.7098016756
  C        25.1232672610        7.5437627143       13.1400384148
  C        25.0954610159        7.5391371628       14.5628577115
  C        24.3876210008        6.5450174538       15.3099275930
  C        26.5570080147       17.8229371378        5.7878308854
  C        25.2565552822       17.8798894590        5.0628117738
  C        25.0142102803       18.8742417741        4.1026142098
  C        23.8064146577       18.9013134381        3.4104372069
  C        22.8093376131       17.9366511096        3.6570768077
  C        23.0472821536       16.9659107779        4.6479280752
  C        24.2564001783       16.9340242903        5.3387583679
  C        21.5444088520       17.9273406983        2.8851465371
  C        21.5536743407       17.9128512201        1.4632820143
  C        22.7633709520       17.7858088807        0.7101217346
  C        34.4124391571       17.2256262567        5.8804128022
  C        35.7131476700       17.1607635697        5.1497945142
  C        35.9223799339       16.1758589245        4.1711345939
  C        37.1086843830       16.1465586589        3.4436038277
  C        38.1175240544       17.1031718560        3.6712193647
  C        37.9115860384       18.0675443234        4.6760614767
  C        36.7237710827       18.0998401172        5.4041111866
  C        39.3724143983       17.1010330177        2.8844864334
  C        39.3649887388       17.0960746793        1.4623052360
  C        38.1555688610       17.2015607667        0.7054207778
  C        20.3110644364       17.9399037055        0.7493429760
  C        20.3178314587       17.9275293962        3.5618796360
  C        34.4395618894       17.2453479503       10.1770514413
  C        35.7386393072       17.1417606061       10.9030151877
  C        35.9673860187       16.1271670667       11.8455573463
  C        37.1557381441       16.0967917070       12.5720799590
  C        38.1486453959       17.0754379573       12.3709668422
  C        37.9286444755       18.0627575496       11.3921465922
  C        36.7379473374       18.1009736006       10.6724938785
  C        39.3995163111       17.0837526864       13.1635827493
  C        39.3788036450       17.0845215369       14.5847369114
  C        38.1617301147       17.1922079257       15.3286823802
  C        35.1131651816       26.6490256190       15.3042891269
  C        35.1765232842       26.6561968189       12.4944508830
  C        26.5695131322       17.8272081336       10.3262952587
  C        25.2559628250       17.8767015031       11.0304094541
  C        24.9990016702       18.8773983764       11.9796886550
  C        23.7809498842       18.9069655104       12.6521412609
  C        22.7918675279       17.9362105143       12.3976706366
  C        23.0434749138       16.9607736628       11.4160819645
  C        24.2623134624       16.9286082950       10.7423238712
  C        21.5265221001       17.9219077913       13.1656591270
  C        21.5438932830       17.9088751922       14.5868607091
  C        22.7581140437       17.7837997688       15.3337989587
  C        14.0463957719       17.8325291486       10.2838851320
  C        15.3532566900       17.8983305042       10.9998684691
  C        15.6123578817       18.9121317746       11.9351407870
  C        16.8232384628       18.9393358663       12.6233102631
  C        17.8065480022       17.9553372271       12.3975929130
  C        17.5535767165       16.9675785128       11.4274974674
  C        16.3423761050       16.9360495012       10.7404315745
  C        19.0721281614       17.9384452495       13.1693500864
  C        19.0626682156       17.9333462503       14.5910960354
  C        17.8507458955       17.8379132967       15.3448530689
  C        46.8026659352       17.2165538201       10.1564192354
  C        45.5084988899       17.1470307583       10.8967576033
  C        45.3005075097       16.1597495031       11.8723603817
  C        44.1159621274       16.1318138053       12.6038056901
  C        43.1086759317       17.0913009698       12.3825371426
  C        43.3135014438       18.0581544329       11.3796016458
  C        44.4989171449       18.0895504300       10.6486101303
  C        41.8548980237       17.0929815355       13.1718105852
  C        41.8628467087       17.0875394811       14.5942356835
  C        43.0729512451       17.1858783831       15.3509884593
  C        20.3055739556       17.9371714133       15.3051574759
  C        20.2983799807       17.9159151964       12.4926607591
  C        46.7839606414       17.2324148584        5.8861546426
  C        45.4816444198       17.1267926901        5.1653113689
  C        45.2634119747       16.1235989907        4.2085900074
  C        44.0761692823       16.0925576000        3.4804518574
  C        43.0761370981       17.0620355872        3.6907455154
  C        43.2857091513       18.0370060494        4.6841748652
  C        44.4739556284       18.0738337368        5.4079225952
  C        41.8278341636       17.0761835880        2.8945917984
  C        41.8491527318       17.0780310607        1.4729343919
  C        43.0663958567       17.1783044249        0.7280347743
  C        46.1530903920       26.6371347357        0.7261806249
  C        46.1621466122       26.6560592371        3.5358182151
  C        14.0397841833       17.8286430203        5.7063784854
  C        15.3530523734       17.8983009208        5.0064696203
  C        15.6215272751       18.9192404264        4.0828425194
  C        16.8451893326       18.9564811523        3.4196964181
  C        17.8245608060       17.9716043449        3.6559245512
  C        17.5618124643       16.9770659817        4.6150690715
  C        16.3404846536       16.9395172332        5.2821869386
  C        19.0903802036       17.9517542821        2.8886100929
  C        19.0723522749       17.9394164920        1.4676318861
  C        17.8555513112       17.8404511956        0.7211628879
  C        28.8361188426       14.1232488557       10.4017154183
  C        28.2486656638       12.9401505941       11.0943207093
  C        28.9753370360       12.2036237472       12.0418642346
  C        28.3852790885       11.1164300709       12.6843272173
  C        27.0557280918       10.7398927363       12.4030066740
  C        26.3525090245       11.4573920232       11.4186547047
  C        26.9382950488       12.5440075208       10.7765261119
  C        26.3852179830        9.6525835478       13.1543254634
  C        26.3491158946        9.6813515335       14.5748235727
  C        26.8376555198       10.7970279499       15.3260231369
  C        32.1802357137       21.2413203085       10.1365676140
  C        32.7765682443       22.4060695995       10.8558359102
  C        32.0268393272       23.0801252574       11.8328215277
  C        32.5942920868       24.1187787817       12.5645749488
  C        33.9285138631       24.5126445373       12.3433985375
  C        34.6604728457       23.8575691174       11.3343486370
  C        34.0951463165       22.8138953127       10.6029701588
  C        34.5525811775       25.5881045851       13.1493932331
  C        34.5281643464       25.5638781163       14.5719245681
  C        34.0103764019       24.4519354783       15.3085737815
  C        25.7250282371        8.6057806464       15.2850618313
  C        25.7546502419        8.6024238045       12.4724403878
  C        32.0682029793       21.2040414871        5.8744214213
  C        32.6386990015       22.3707092259        5.1391668206
  C        31.9080615531       23.0093584363        4.1251840165
  C        32.4794187609       24.0502737777        3.3952872326
  C        33.7956663111       24.4808980341        3.6567749133
  C        34.5062718117       23.8558314469        4.7001373847
  C        33.9401164199       22.8124325960        5.4270828705
  C        34.4377292210       25.5637477643        2.8740778505
  C        34.4682702539       25.5521377261        1.4512901437
  C        33.9803696804       24.4467752138        0.6853712178
  C        40.6102401168       17.0688902848        0.7512893602
  C        40.5975781455       17.1066947280        3.5614580062
  C        28.7277476091       14.0669815473        5.7834275539
  C        28.1156974794       12.9182171803        5.0571082329
  C        28.8526011473       12.2092442973        4.0955425265
  C        28.2688271787       11.1512808995        3.4044624441
  C        26.9323239333       10.7763883095        3.6478465620
  C        26.2130583683       11.4706443260        4.6387842421
  C        26.7952412668       12.5290101125        5.3333325961
  C        26.2910015994        9.6890469462        2.8711113724
  C        26.2999272453        9.7018538683        1.4493586300
  C        26.8111403499       10.8087133232        0.7015348697
  C        18.1353651722        3.1808798844       10.3171353397
  C        17.4057788639        4.2780620955       11.0155798436
  C        16.3899227672        3.9995115369       11.9428983110
  C        15.7420121281        5.0393706711       12.6064111804
  C        16.0938589743        6.3831407841       12.3669211001
  C        17.0833265723        6.6528588802       11.4032977167
  C        17.7326121362        5.6156369468       10.7382271426
  C        15.4694466355        7.4907595017       13.1300363818
  C        15.4847501549        7.4900748454       14.5517589879
  C        16.1862413004        6.4963999464       15.3049082255
  C        42.9457281091       31.8595663208       10.0727868795
  C        43.6460997196       30.7718589164       10.8167984919
  C        44.5916368639       31.0931954929       11.8028409528
  C        45.1973295084       30.0876595013       12.5505378921
  C        44.8708697672       28.7346183690       12.3356754997
  C        43.9450126209       28.4202625605       11.3225116919
  C        43.3361957353       29.4253971321       10.5744568372
  C        45.4884965331       27.6553227610       13.1388390052
  C        45.4925500569       27.6808323957       14.5605345038
  C        44.8053189369       28.6887878404       15.3071517215
  C        14.8559630836        8.5626607915       15.2641510696
  C        14.8742355428        8.5625839228       12.4514778432
  C        42.9462933079       31.9615501067        5.8090123488
  C        43.6914373103       30.8853568604        5.0954070784
  C        44.6563425439       31.1912405026        4.1234234585
  C        45.2778162938       30.1716442439        3.4056490624
  C        44.9536603818       28.8213807843        3.6429895293
  C        44.0197694937       28.5237225755        4.6533704662
  C        43.3915451265       29.5405023839        5.3655730838
  C        45.5627362368       27.7239694846        2.8577565324
  C        45.5330017796       27.7172267837        1.4364654115
  C        44.8265771053       28.7074044501        0.6835458021
  C        35.0854555159       26.6414936344        0.7501174647
  C        35.0485391736       26.6215439443        3.5605203093
  C        18.1486843674        3.2468669147        5.7067163791
  C        17.4301283311        4.3437321488        4.9973351962
  C        16.4147378080        4.0524432039        4.0739737076
  C        15.7663921941        5.0830526029        3.3985687520
  C        16.1212057095        6.4282862880        3.6210501682
  C        17.1128074137        6.7117025739        4.5780708679
  C        17.7604780004        5.6828079878        5.2578800118
  C        15.4906118100        7.5239520407        2.8486068505
  C        15.4961807458        7.5071814513        1.4274630152
  C        16.1926643209        6.5053170592        0.6807235018
  H        10.6725243719       12.4656652261        3.9044975123
  H        11.6948526447       10.5508577835        2.6626769904
  H        15.3919196914       11.1688693781        4.7720101995
  H        14.3514217668       13.0715471116        6.0172058742
  H        13.3765850753       11.6312363666        1.2012508627
  H        50.3224657962       22.7481597591        3.9865283966
  H        49.3193331469       24.6225150685        2.6804559204
  H        45.6423783840       24.1620020698        4.8644393590
  H        46.6633323224       22.2911307014        6.1728490064
  H        47.6300276664       23.5760054208        1.2460575784
  H        14.8725659945        8.5883627613        4.6085137784
  H        50.2867574845       22.7020208568       12.0608647762
  H        49.2689587528       24.5749452000       13.3608621774
  H        45.6111891735       24.1107060299       11.1447205370
  H        46.6532269122       22.2553550617        9.8303419414
  H        47.6081058041       23.5520368350       14.7967760524
  H        40.6330736457       17.0853148734       11.4073792010
  H        48.6872792902       14.0952100871        7.8000963424
  H        10.6810456141       12.4667379702       12.0935343596
  H        11.6891771920       10.5247092757       13.2972096169
  H        15.3930202569       11.1584213361       11.2054610678
  H        14.3647644388       13.0869128040        9.9902836029
  H        13.3759154492       11.6220573962       14.7530791218
  H        47.9302225679       14.2187482880        9.7108566084
  H        47.7800428822       14.3745483927        6.4957094777
  H        49.0832612671       18.5523274166       10.8672620778
  H        10.4161927707       14.1342920488        7.9989133068
  H        24.4698986930        3.0284391268        3.9016719742
  H        25.6000828212        4.8862909148        2.6645892260
  H        23.2145014607        7.7528170853        4.8073934895
  H        22.1043009688        5.8853228263        6.0476249767
  H        23.8089735729        5.7908641973        1.2198566231
  H        36.3602746772       32.1932569674        3.9826059431
  H        35.2117583953       30.3767729150        2.7156278341
  H        37.4651842334       27.4384196655        4.9037478533
  H        38.5938609961       29.2680260587        6.1808322044
  H        36.9795394536       29.4574617569        1.2985077713
  H        25.6916631702        8.6103679603        4.6292996541
  H        36.4517886671       32.2419648291       12.1123295545
  H        35.3383598637       30.4289976083       13.4104250851
  H        37.5403624787       27.4869279000       11.1735412653
  H        38.6276725460       29.3115358667        9.8615998028
  H        37.0182552219       29.4747745909       14.8516066212
  H        46.1094632010       26.5879326642       11.3854989554
  H        44.6680989336       35.1160649005        7.8140932371
  H        24.4611377391        3.0336939985       12.0647982619
  H        25.6175703117        4.8672790913       13.2998196615
  H        23.2230752588        7.7687991063       11.2160864486
  H        22.0785927047        5.9234012793        9.9802963201
  H        23.8234848560        5.7895003896       14.7708763686
  H        44.9532432992       34.3898851324        9.6948673410
  H        44.9013288649       34.2067430733        6.4906104336
  H        40.6655413104       33.2088393039       10.8530868290
  H        23.1506576954        1.9578266878        8.0031195393
  H        25.7826297128       19.6199794373        3.9129139018
  H        23.6205001569       19.6770865033        2.6708704279
  H        22.2863495408       16.2134355417        4.8444475756
  H        24.4549372510       16.1716666795        6.0883012002
  H        23.7012460481       17.6569395102        1.2429166872
  H        35.1386417772       15.4433324324        3.9915407839
  H        37.2701978660       15.3734879067        2.6954270209
  H        38.6816330812       18.8149368174        4.8560025335
  H        36.5491700497       18.8595077860        6.1626528425
  H        37.2167755866       17.3242507906        1.2377920619
  H        20.3193735282       17.9613217663        4.6498807928
  H        35.2026937123       15.3699595855       12.0035506688
  H        37.3294913391       15.3080519975       13.3009386801
  H        38.6886052526       18.8245160971       11.2307170250
  H        36.5480863875       18.8811948179        9.9392534426
  H        37.2274390339       17.3053774538       14.7862829918
  H        35.1605762292       26.6799037814       11.4064443125
  H        28.4974304054       21.0746653041        7.8762695629
  H        25.7660921426       19.6240132108       12.1721661152
  H        23.5805314323       19.6864899526       13.3839593325
  H        22.2868882841       16.2051523171       11.2148428819
  H        24.4733469659       16.1642342254        9.9983835170
  H        23.6919410619       17.6540338848       14.7949718647
  H        29.0080322855       21.7195789187        9.7380043236
  H        29.2054254011       21.6933139771        6.5572055999
  H        32.1042350299       18.6661248575       10.9210264656
  H        27.3633486915       19.0067589525        8.0781922921
  H        14.8539409525       19.6723849009       12.1078653128
  H        17.0222171523       19.7295630698       13.3440417408
  H        18.3045320277       16.2015811716       11.2452720970
  H        16.1329170419       16.1604298980       10.0076942682
  H        16.9106124676       17.7297157455       14.8119900105
  H        46.0846330168       15.4278367548       12.0513647277
  H        43.9567399475       15.3586236715       13.3522582618
  H        42.5447702963       18.8078387678       11.2037828044
  H        44.6726971074       18.8505660268        9.8913570530
  H        44.0134723669       17.3006522530       14.8197839235
  H        20.2975781761       17.9471592711       11.4045689097
  H        46.0397837491       15.3813623278        4.0373746958
  H        43.9109764091       15.3124134949        2.7404854298
  H        42.5201111767       18.7913422600        4.8535091170
  H        44.6550753026       18.8451508944        6.1525495033
  H        44.0021389530       17.2860201171        1.2690160110
  H        46.1990109052       26.6826951080        4.6232605117
  H        52.7414758631       21.0628167578        8.1946610397
  H        14.8621221314       19.6770150071        3.9035145939
  H        17.0564724953       19.7512946346        2.7076137666
  H        18.3116210457       16.2110676276        4.8016923204
  H        16.1199780059       16.1611345209        6.0085526035
  H        16.9189546837       17.7340137976        1.2602733503
  H        52.3232697979       21.6739722072        6.2944265733
  H        52.0142689601       21.7031501088        9.4955950964
  H        49.0681769217       18.6081276360        5.2039101405
  H        13.2474984105       19.0161776627        7.9760504508
  H        30.0001203909       12.4952114905       12.2615396392
  H        28.9506138234       10.5464814723       13.4185459232
  H        25.3250085121       11.1791273765       11.1936088084
  H        26.3894652264       13.1176559497       10.0341448577
  H        27.2067574585       11.6665008320       14.7905891812
  H        31.0028851280       22.7632645426       12.0152315412
  H        32.0057531874       24.6389910957       13.3170918026
  H        35.6927751212       24.1515545305       11.1556437687
  H        34.6675307353       22.2853759635        9.8440137783
  H        33.6603151533       23.5806823989       14.7624129857
  H        25.7977888455        8.5832789741       11.3848091837
  H        30.8986837735       22.6652214397        3.9102782301
  H        31.9045978100       24.5443624953        2.6150141002
  H        35.5249816349       24.1751576994        4.9100620377
  H        34.4977520247       22.3091603309        6.2132762188
  H        33.6073953851       23.5712437621        1.2093499021
  H        40.5926064073       17.0821068430        4.6495292806
  H        32.5156498114       14.1538568820        8.1482895341
  H        29.8842081598       12.4974485869        3.9074275682
  H        28.8469895050       10.5984626483        2.6673142546
  H        25.1788896546       11.1938058561        4.8330966438
  H        26.2360107124       13.0825212584        6.0839422814
  H        27.1584534894       11.6874317148        1.2373135134
  H        33.2962974526       14.2331342010        6.3632001135
  H        33.4100872260       14.3584329870        9.5286474242
  H        31.9984932363       18.5084777500        5.0553398351
  H        30.2054208796       14.1426847086        8.0823891788
  H        16.1179258414        2.9629650331       12.1291659604
  H        14.9524610002        4.8198216548       13.3219105122
  H        17.3657173415        7.6857757751       11.2103376870
  H        18.5147585474        5.8184422997       10.0105384020
  H        16.7526028984        5.7389343245       14.7713803143
  H        44.8278955022       32.1402885965       11.9769913349
  H        45.9372031159       30.3414094947       13.3064757408
  H        43.6822796969       27.3781980011       11.1524442104
  H        42.5995286103       29.1901058027        9.8098225048
  H        44.2299023353       29.4364976651       14.7688281083
  H        14.8505109246        8.5458495454       11.3632563695
  H        44.9001565675       32.2339099628        3.9322544684
  H        46.0249686932       30.4128332090        2.6526424897
  H        43.7624285325       27.4840275376        4.8446031522
  H        42.6446773345       29.3177726539        6.1236788558
  H        44.2680060213       29.4702223282        1.2181702681
  H        34.9990065363       26.6353227075        4.6477076584
  H        36.6051671060       35.1340509848        8.1805899836
  H        16.1435059057        3.0128723624        3.9044404167
  H        14.9738872332        4.8561591876        2.6886979191
  H        17.3964610518        7.7471640444        4.7547712644
  H        18.5434346180        5.8932999612        5.9825429012
  H        16.7640631292        5.7550272383        1.2191288974
  H        36.2789601796       34.4821388716        6.2734440091
  H        36.3805037004       34.2092108820        9.4996458164
  H        40.5787121711       33.2019898901        5.1543617007
  H        17.4712454579        1.9473419859        7.9741492829
  H        29.0977785818       19.5625406455       12.4713564959
  H        28.7696575110       18.9897063952        3.7269824636
  H        30.5531951465       15.5419037745        3.7643840024
  H        31.2162448300       15.8750655023       13.0472463282
  H        28.0543392980       17.9309695714       14.4989242986
  H        29.7427970303       15.5736514585       14.5507804669
  H        32.0811705498       15.8491315064        2.3952125389
  H        18.8532714135        0.8689971522       12.3351942487
  H        40.5281202553       35.2290871514        3.9521443589
  H        42.3232632172       34.4181158806        3.5910863072
  H        22.0876591544        0.6921159976       12.3515855270
  H        11.5966493591       18.7127026545       12.3827673069
  H        52.2650038100       18.4317104644        3.6774775943
  H        49.2552683055       16.4763560129        3.5840667630
  H        10.1505221131       15.7983970181       12.2925094860
  H        50.8503891375       17.6927378605        3.9538857360
  H        10.0461890411       17.3948943083       12.0518358335
  H        20.2143969522        0.0021988556       12.0420722039
  H        39.1835184218       36.1241850517        3.6861171089
 Ni        30.2227596090       17.5082308442        2.5835375153
 Ni        30.7721120844       16.5522340587        0.5002563871
 Ni        29.3806973896       18.2764085251        0.4125231930
 Ni        30.0613143063       17.6454953232       13.3259360596
  O        10.6499605880       14.3651645933        5.4858565531
  O        12.6130898301       14.6574148046        6.5839301919
  O        49.1475871592       16.8458914740        7.9897158092
  O        50.3501251200       20.9361294184        5.6481478855
  O        48.3484781804       20.5932350876        6.6659303698
  O        11.0511435598       17.0539283058        6.5007801719
  O        50.3207956378       20.8816504174       10.4068956981
  O        48.3466422340       20.5866374000        9.3270911085
  O        49.5434525177       18.2484046863       10.0682501847
  O        12.3588942781       18.6247792815        7.9997103742
  O        48.6931574120       14.1486704973        6.7512989775
  O         8.2098844084       14.2105000710        9.3225289719
  O        10.7351332442       14.5067441902       10.6643106448
  O        12.5716950783       14.5826993102        9.3286114763
  O        22.8443437907        2.0431075188        5.4868803634
  O        21.6054315546        3.5924297884        6.5893994873
  O        42.0579045670       34.1372009839        7.9791511432
  O        37.9813609158       33.1369759634        5.5725120619
  O        39.2172016030       31.5752051974        6.6656334438
  O        20.3085026080        1.0400717166        6.5021418009
  O        38.0243732427       33.1849247406       10.4156941636
  O        39.2183089045       31.5829401664        9.3275050040
  O        40.6521669963       33.7691777746       10.0602084628
  O        18.2560573460        1.3763312874        7.9968673572
  O        44.6221529864       35.1005811289        6.7588168357
  O        24.2053922340       -0.0000052528        9.3207986527
  O        22.7535184088        2.0577920189       10.5840860600
  O        21.6259303478        3.5973564090        9.3448195621
  O        27.4494697645       18.6925378201        5.4928419931
  O        26.6920810388       16.9108518984        6.6708278656
  O        30.6334930861       19.3461344062        8.0118999992
  O        33.5383813885       16.3410892657        5.5817663035
  O        34.2653875738       18.1693013978        6.7327445384
  O        29.5386573747       17.0037319996        6.5697306972
  O        33.5464345776       16.3419622697       10.4202105688
  O        34.2929729511       18.2352324314        9.3968671435
  O        31.6445899659       18.3066620809       10.1459230158
  O        30.2980332657       15.1090876311        8.0672021191
  O        28.5475316190       21.0269820128        6.8300521378
  O        28.5134297245       20.9521789024        9.4034962080
  O        27.4567945329       18.6785024753       10.6566845841
  O        26.6925039933       16.9254197232        9.4168443680
  O        13.1468949030       18.6936917013       10.5862681952
  O        13.9182075709       16.9161093888        9.4042008757
  O        50.5959763942       19.3502969855        8.0207575558
  O        47.6822482731       16.3271666622       10.4173520250
  O        46.9503095314       18.1758477964        9.3252493049
  O        11.0691901599       17.0158616755        9.4895587523
  O        47.6742762478       16.3360247215        5.6525223757
  O        46.9246027063       18.2360599444        6.6629972882
  O        49.5688361567       18.3177557910        5.9823060021
  O        10.3186685423       15.1001336865        7.9970847812
  O        52.6707308299       21.0279697088        9.2417995107
  O        12.1468202678       20.8914428519        6.6734030758
  O        13.1044040533       18.6142883240        5.3264008012
  O        13.9549608835       16.9865149686        6.6655451876
  O        30.0184496442       14.5119181888       10.7313617412
  O        28.0970471229       14.6531048196        9.5009856644
  O        32.0707296025       16.8528343267        8.0060585369
  O        30.9669178045       20.9526307617       10.4002507985
  O        32.9471623006       20.5940500755        9.3318038085
  O        29.5684504826       17.0669127667        9.5736814022
  O        30.8482519595       20.8875258175        5.6586549383
  O        32.8677355006       20.5830460777        6.6615150195
  O        31.6084827662       18.2438880870        5.9062225251
  O        28.2561615356       18.6249231528        8.0666194136
  O        32.4916565899       14.2127756177        9.2399698931
  O        32.4018174170       14.2215515096        6.7432770959
  O        29.8997730423       14.4428951092        5.4150318937
  O        28.0458742233       14.5794084536        6.7374550514
  O        17.8892509627        1.9665709256       10.6627782729
  O        18.9563443194        3.5271543023        9.4080489311
  O        39.1685128719       34.1386712368        7.9971540934
  O        43.2801876749       33.0589370794       10.3317014575
  O        42.0344002768       31.5064361712        9.2415927887
  O        20.3175368130        1.0365486085        9.4801889269
  O        43.2760502117       33.1824783978        5.5749157204
  O        42.0051857789       31.5840879540        6.5830335594
  O        40.5790970291       33.7751470103        5.9361581594
  O        22.3673547600        1.3848455991        7.9981636146
  O        36.6728236677       35.0997223047        9.2332814925
  O        16.4457065524        0.0642623145        6.6683152106
  O        17.9364311687        2.0432761839        5.3264628094
  O        18.9191540231        3.5931057214        6.6660064718
  O        29.6606855349       18.8252531714        4.0838850359
  O        29.7813546326       19.0377654768       12.0141754882
  O        31.2130231606       16.2525903029        3.9136001203
  O        31.5143773973       16.3402498019       12.1681724474
  O        32.3199471934       15.6772786164        1.4267415013
  O        30.5487050579       16.1192937958       14.4814676223
  O        28.8626052499       18.4705562816       14.5899267956
  O        39.4568563722       35.2437544865        4.0020200129
  O        19.1412515804        0.0045222231       11.9905419761
  O        41.9695680580       35.1726375965        4.0872286802
  O        21.6913696055       -0.0693611201       11.8959412309
  O        51.3649430769       18.6144205334        4.0052343599
  O        10.7509179917       18.7471192241       11.9050795931
  O        50.0794452677       16.4126620606        4.0917529243
  O         9.5244416520       16.4831668815       11.9911711885
 Zr         9.2977423695       16.0528623327        6.1823133104
 Zr        49.8373059332       16.0069491086        9.7464602828
 Zr        22.0729567907        0.0297143712        6.1893689963
 Zr        42.4606727996       35.1535522937        9.8011045559
 Zr        29.5450063397       19.0450345908        6.2070350320
 Zr        29.5589686982       19.1803543619        9.8535211990
 Zr        11.0384396619       19.0523569955        9.8280684923
 Zr        11.0443119838       19.1551626672        6.2509565638
 Zr        31.3403920115       16.0922418192        9.7652926703
 Zr        31.3506769714       16.0133500321        6.1798154382
 Zr        18.6007788051       -0.0019915678        9.7634499624
 Zr        18.5065091792       -0.0077630493        6.2135715362
 Zr        12.3023827684       16.3233791189        7.9906994370
 Zr        48.6172997100       18.8332755346        8.0100969571
 Zr        20.3155982466        2.4737063488        7.9914357103
 Zr        40.6425224655       32.6865649151        7.9781545631
 Zr        28.3167490558       16.3286798512        8.0762055277
 Zr        32.5855311264       18.8577757480        8.0107436240
  H        28.8832261782       17.7253839419        1.7803491577
  H        32.4467109692       16.5992690322       12.3068018460
  H        33.0779713949       16.2641615818        1.2531373930
