     570
 i =      117, E =     -4745.5870512820
  C        11.8587659955       14.0533952469        5.7416126441
  C        12.4562043846       12.8904759883        5.0234397410
  C        11.7045888833       12.1716839597        4.0815923153
  C        12.2809789221       11.1095273672        3.3892140554
  C        13.6215207979       10.7396085676        3.6170450450
  C        14.3546016727       11.4430307549        4.5907055869
  C        13.7816995286       12.5079613691        5.2822680214
  C        14.2610539292        9.6489786669        2.8436119709
  C        14.2561964719        9.6568547696        1.4219131046
  C        13.7430118135       10.7589559423        0.6679867862
  C        49.1268227742       21.2331079926        5.8797196880
  C        48.5501335993       22.4010620536        5.1527088496
  C        49.3000470828       23.0681016157        4.1714216598
  C        48.7331694026       24.1072759621        3.4382386048
  C        47.4027779748       24.5092994213        3.6671506659
  C        46.6720114162       23.8607977149        4.6810639303
  C        47.2344106426       22.8158649944        5.4104020976
  C        46.7725098221       25.5869576484        2.8698515953
  C        46.7614632368       25.5573001967        1.4480800234
  C        47.2614145761       24.4422345156        0.7045472347
  C        14.8601546773        8.5705397094        0.7086278133
  C        14.8919394085        8.5970704031        3.5202404556
  C        49.1131673578       21.2034991050       10.1453323693
  C        48.5278846541       22.3649257490       10.8723439587
  C        49.2670313439       23.0253685905       11.8655271372
  C        48.6907522123       24.0599237552       12.5970132656
  C        47.3604589255       24.4570127327       12.3585926859
  C        46.6402024668       23.8124485615       11.3347296577
  C        47.2136743926       22.7765358800       10.6029038459
  C        46.7219866260       25.5318929608       13.1496981136
  C        46.7336958735       25.5281637955       14.5714011648
  C        47.2491476011       24.4289622414       15.3277833623
  C        40.6176802201       17.0545898757       15.3230727943
  C        40.6331205687       17.0762983234       12.5133002117
  C        11.8829803753       14.0864298333       10.2855099737
  C        12.4721724399       12.9106251617       10.9896102170
  C        11.7147484245       12.1776526202       11.9159990089
  C        12.2813013721       11.0951832093       12.5843880945
  C        13.6200395308       10.7212019794       12.3523604115
  C        14.3578714518       11.4364924485       11.3912191326
  C        13.7924850573       12.5176792532       10.7185366880
  C        14.2536431661        9.6244804341       13.1227948127
  C        14.2522897109        9.6444694138       14.5446364572
  C        13.7424201076       10.7534084923       15.2917319165
  C        22.5132802759        3.2445566971        5.7529191423
  C        23.2308446462        4.3481379548        5.0535431314
  C        24.2259496070        4.0648177180        4.1061341271
  C        24.8563817482        5.1019680448        3.4234920268
  C        24.5079695832        6.4452319154        3.6678613373
  C        23.5411572732        6.7199526557        4.6523998393
  C        22.9058989728        5.6846233517        5.3334403032
  C        25.1162775129        7.5503776538        2.8916191889
  C        25.0843329147        7.5459964304        1.4701068457
  C        24.3796670920        6.5483079707        0.7243518240
  C        38.2995812298       31.9291443066        5.8541680466
  C        37.5625432372       30.8368345978        5.1567981739
  C        36.5913330156       31.1353998320        4.1891169325
  C        35.9699494161       30.1110589004        3.4803758554
  C        36.3063129765       28.7636710920        3.7164539189
  C        37.2455649549       28.4723836117        4.7233441584
  C        37.8701914384       29.4953643251        5.4318085709
  C        35.7080752391       27.6702748353        2.9182605875
  C        35.7381777960       27.6915415047        1.4969470173
  C        36.4408273137       28.6996450708        0.7640967669
  C        25.7051210251        8.6174774214        0.7503323014
  C        25.7187777161        8.6222354467        3.5619777505
  C        38.3303085607       31.9609433444       10.1617075533
  C        37.6124418870       30.8905412347       10.9147627588
  C        36.6844156134       31.2055833512       11.9196927220
  C        36.0720636197       30.1929064575       12.6565256250
  C        36.3716559510       28.8374177485       12.4128778054
  C        37.2809177057       28.5322808803       11.3810089787
  C        37.8955946476       29.5415752543       10.6455900823
  C        35.7537047278       27.7411881765       13.1968341686
  C        35.7605748839       27.7288785076       14.6195482901
  C        36.4522884782       28.7172707247       15.3875788895
  C        46.1355949661       26.6207297327       15.2815682776
  C        46.0880386456       26.5802837544       12.4736859714
  C        22.4612244152        3.2562757196       10.2577183783
  C        23.1554659263        4.3650986434       10.9800403105
  C        24.1582164826        4.0795335358       11.9203967084
  C        24.7864370932        5.1099396456       12.6157594587
  C        24.4322768463        6.4559246507       12.3938176053
  C        23.4526887939        6.7346636936       11.4218089738
  C        22.8198841369        5.7045571959       10.7267594035
  C        25.0632003755        7.5541968945       13.1679481089
  C        25.0575994701        7.5472943078       14.5908672134
  C        24.3652394560        6.5497713295       15.3474895976
  C        26.6112265444       17.8591638188        5.7847755590
  C        25.3058140902       17.9116247910        5.0624766515
  C        25.0321536318       18.9328766039        4.1382866701
  C        23.8211578834       18.9540623141        3.4489782753
  C        22.8457588293       17.9596754334        3.6647488981
  C        23.1139226032       16.9615948090        4.6207041716
  C        24.3276330722       16.9334892018        5.3059935534
  C        21.5736734715       17.9490633401        2.8978239955
  C        21.5762459464       17.9394186258        1.4752661660
  C        22.7841100360       17.8323548952        0.7160049589
  C        34.4255993943       17.2177791959        5.9233730702
  C        35.7239120170       17.1444726573        5.1932183061
  C        35.9341259689       16.1523036606        4.2222287900
  C        37.1133807092       16.1279231456        3.4827379231
  C        38.1167783439       17.0935588737        3.6937695957
  C        37.9116897828       18.0641284899        4.6934460801
  C        36.7292863508       18.0946201536        5.4298144832
  C        39.3692329891       17.0922669314        2.9019111543
  C        39.3622151740       17.0842456032        1.4795832601
  C        38.1531239714       17.1854934084        0.7219700984
  C        20.3301936534       17.9516647968        0.7654584508
  C        20.3487552122       17.9422793572        3.5792534770
  C        34.4464727966       17.2279157611       10.1988664103
  C        35.7450224611       17.1194832412       10.9191959123
  C        35.9478147030       16.1304156466       11.8937142248
  C        37.1380408565       16.0915044940       12.6159042409
  C        38.1535540716       17.0404323119       12.3846209914
  C        37.9565137399       18.0019508283       11.3756438747
  C        36.7664488853       18.0459999515       10.6560812903
  C        39.4019900916       17.0528712923       13.1795368714
  C        39.3791905600       17.0648416691       14.6011734025
  C        38.1616175358       17.1748002604       15.3448929674
  C        35.1289780327       26.6467466403       15.3198496553
  C        35.1562724089       26.6763957578       12.5099774042
  C        26.5713536146       17.8271995149       10.3208951484
  C        25.2570741551       17.8749394162       11.0274845882
  C        24.9876546092       18.8941066451       11.9535244863
  C        23.7704885881       18.9240937141       12.6283046844
  C        22.7932291384       17.9349539636       12.4002913003
  C        23.0564569990       16.9402197335       11.4411670023
  C        24.2745116670       16.9081679161       10.7645502891
  C        21.5298855511       17.9213835630       13.1744775089
  C        21.5535942508       17.9228315025       14.5961874967
  C        22.7728086792       17.8234889098       15.3393665474
  C        14.0469381989       17.8294179077       10.2884501986
  C        15.3517622944       17.8882306814       11.0127924413
  C        15.6079023956       18.8929119035       11.9590229431
  C        16.8171333075       18.9157631345       12.6513147294
  C        17.8046621132       17.9368609349       12.4196449648
  C        17.5533411227       16.9564615982       11.4411737826
  C        16.3434824690       16.9290243058       10.7504011782
  C        19.0736606053       17.9229773822       13.1888310637
  C        19.0718396126       17.9241844418       14.6112900782
  C        17.8646025900       17.8215963074       15.3717044623
  C        46.8021748965       17.2166897690       10.1593326075
  C        45.5103492611       17.1452212345       10.9050500446
  C        45.3114331541       16.1618731650       11.8870665637
  C        44.1293490608       16.1287761798       12.6228103659
  C        43.1131717135       17.0786653429       12.3999370208
  C        43.3095750550       18.0422464223       11.3916997938
  C        44.4928360076       18.0793041564       10.6567108146
  C        41.8587555342       17.0739900387       13.1899711446
  C        41.8642162107       17.0752121615       14.6126314919
  C        43.0727937392       17.1808583937       15.3703905899
  C        20.3181876349       17.9425884942       15.3203310101
  C        20.2982758366       17.9024216699       12.5074183338
  C        46.7841350536       17.2308298625        5.8891726403
  C        45.4799871486       17.1223317290        5.1743213733
  C        45.2601999897       16.1180414794        4.2193059403
  C        44.0713629838       16.0864484919        3.4943627949
  C        43.0721255824       17.0561115138        3.7070557753
  C        43.2825615224       18.0309451573        4.7002107211
  C        44.4725751854       18.0686750983        5.4204210000
  C        41.8242154011       17.0705547331        2.9117235727
  C        41.8465090116       17.0722100585        1.4904639697
  C        43.0644919777       17.1758194605        0.7472447514
  C        46.1533622906       26.6371355899        0.7263313710
  C        46.1625541667       26.6560965224        3.5359883728
  C        14.0451445092       17.8315811694        5.7084940751
  C        15.3653313196       17.9061282740        5.0168765580
  C        15.6374885697       18.9227318251        4.0892081608
  C        16.8657727264       18.9611298866        3.4333163845
  C        17.8494900436       17.9821644372        3.6793820551
  C        17.5839767844       16.9940442742        4.6448374580
  C        16.3576250759       16.9551166733        5.3042637159
  C        19.1169827717       17.9614027194        2.9110348242
  C        19.0945021393       17.9430425840        1.4894951573
  C        17.8755931717       17.8299447636        0.7478927199
  C        28.8128072136       14.0945988581       10.3903518572
  C        28.2016082236       12.9198795667       11.0765112991
  C        28.9232815364       12.1765363992       12.0220673380
  C        28.3220520029       11.1026441521       12.6737808916
  C        26.9850794971       10.7468732860       12.4034854358
  C        26.2857299431       11.4691393163       11.4198814416
  C        26.8843440898       12.5437228297       10.7672683092
  C        26.3146516469        9.6676190199       13.1648638519
  C        26.3027145471        9.6936821050       14.5861093617
  C        26.8033471093       10.8078093761       15.3317264901
  C        32.1716693557       21.2454519633       10.1888988300
  C        32.7533498233       22.4168728859       10.9028309360
  C        32.0018526751       23.0969586284       11.8733528411
  C        32.5706410462       24.1423266743       12.5948276223
  C        33.9038138961       24.5348112002       12.3653546240
  C        34.6355840727       23.8748187728       11.3605019596
  C        34.0708621072       22.8236072187       10.6423939769
  C        34.5362573383       25.6071973709       13.1661282299
  C        34.5332482874       25.5685624408       14.5875677599
  C        34.0279330795       24.4481948642       15.3204427502
  C        25.6955945235        8.6145151437       15.3052960714
  C        25.6777320034        8.6168719404       12.4916185677
  C        32.1193983546       21.2039014586        5.9239369918
  C        32.7089960135       22.3560278657        5.1849097575
  C        31.9781799324       22.9893642402        4.1666912368
  C        32.5532386566       24.0170079043        3.4229080972
  C        33.8723468216       24.4427783450        3.6760747662
  C        34.5859934043       23.8193637943        4.7193452101
  C        34.0176417383       22.7846166337        5.4582273033
  C        34.5052475015       25.5281314509        2.8894526324
  C        34.5169453963       25.5275588550        1.4661870597
  C        34.0207818581       24.4277997428        0.6974802813
  C        40.6082087652       17.0590773847        0.7684455136
  C        40.5943409650       17.1007876048        3.5786991545
  C        28.7405066402       14.0649893309        5.8235571330
  C        28.1365307890       12.9153984483        5.0896300031
  C        28.8661641084       12.2475721771        4.0940170203
  C        28.2903457250       11.1897300953        3.3943399812
  C        26.9691724110       10.7763649149        3.6613155505
  C        26.2586202270       11.4330494991        4.6841764297
  C        26.8327892460       12.4894561804        5.3882287162
  C        26.3278255851        9.6877340586        2.8855171277
  C        26.3101589710        9.7047403391        1.4632218532
  C        26.8037814747       10.8146855474        0.7078822978
  C        18.1355176639        3.1809566379       10.3171435214
  C        17.4062648280        4.2782391706       11.0158568503
  C        16.3901570560        3.9998872494       11.9429370160
  C        15.7423892250        5.0398632695       12.6064168684
  C        16.0946439695        6.3835452529       12.3670844495
  C        17.0844964047        6.6530880204       11.4038243138
  C        17.7336232516        5.6157378393       10.7387929041
  C        15.4702077287        7.4912211552       13.1301167923
  C        15.4853907966        7.4905301255       14.5518361470
  C        16.1869509080        6.4969063456       15.3049921459
  C        42.9458718998       31.8595992222       10.0729136017
  C        43.6463042404       30.7718729780       10.8169111566
  C        44.5918134680       31.0932258943       11.8029744414
  C        45.1975209712       30.0876912507       12.5506792050
  C        44.8711284307       28.7346353968       12.3358034220
  C        43.9453224545       28.4202694951       11.3225919404
  C        43.3364975100       29.4253973749       10.5745325943
  C        45.4887170566       27.6553197173       13.1389804890
  C        45.4928280739       27.6808415513       14.5606764249
  C        44.8056814944       28.6888349745       15.3073100860
  C        14.8563439602        8.5629880881       15.2641915540
  C        14.8749313202        8.5629697842       12.4515155605
  C        42.9463879208       31.9616724931        5.8090700842
  C        43.6916522222       30.8854405949        5.0955283329
  C        44.6562777212       31.1913458261        4.1232875867
  C        45.2778617659       30.1717549679        3.4055854055
  C        44.9540602775       28.8214495378        3.6431867402
  C        44.0204985957       28.5237822623        4.6538864873
  C        43.3922022463       29.5405630873        5.3660378498
  C        45.5631327900       27.7240298226        2.8579420083
  C        45.5333346088       27.7172543721        1.4366371024
  C        44.8269512106       28.7074549323        0.6837026391
  C        35.1190214342       26.6261511763        0.7652755900
  C        35.1115956131       26.5883996906        3.5752171628
  C        18.1487526636        3.2470240253        5.7065713187
  C        17.4302401463        4.3438972684        4.9971934996
  C        16.4146219615        4.0526437105        4.0740747071
  C        15.7663019510        5.0832813619        3.3986934331
  C        16.1213590322        6.4284657794        3.6210541479
  C        17.1132684041        6.7118436952        4.5777482959
  C        17.7609628321        5.6829193379        5.2574994505
  C        15.4907414339        7.5241427056        2.8486373104
  C        15.4964683572        7.5074761043        1.4274981749
  C        16.1932031462        6.5057457533        0.6808080620
  H        10.6724961933       12.4658539750        3.9044769642
  H        11.6947515500       10.5511265236        2.6625689384
  H        15.3916051469       11.1683719229        4.7725246733
  H        14.3511733115       13.0710440049        6.0178056714
  H        13.3760666824       11.6311244531        1.2012676799
  H        50.3226335716       22.7478250495        3.9864324062
  H        49.3195979016       24.6223355489        2.6804726190
  H        45.6427043140       24.1619931517        4.8645946226
  H        46.6635319278       22.2909998724        6.1728490787
  H        47.6300177010       23.5758573585        1.2461869422
  H        14.8724812208        8.5883598581        4.6085504961
  H        50.2869859787       22.7023266093       12.0606061638
  H        49.2691113265       24.5751770064       13.3606756276
  H        45.6109513350       24.1100399611       11.1454090524
  H        46.6529210855       22.2546747343        9.8310903356
  H        47.6080011290       23.5518725697       14.7968988947
  H        40.6381138556       17.0451263032       11.4253903628
  H        48.6872019167       14.0949725289        7.8000193207
  H        10.6813435623       12.4668350647       12.0935660331
  H        11.6895774556       10.5249146253       13.2972395234
  H        15.3932235820       11.1584334353       11.2050793245
  H        14.3648221448       13.0868378661        9.9898425918
  H        13.3756517460       11.6220632065       14.7531244188
  H        47.9301743780       14.2183316046        9.7108651784
  H        47.7800305096       14.3738781677        6.4954703351
  H        49.0832890056       18.5522520156       10.8672986795
  H        10.4161445853       14.1343714642        7.9988276090
  H        24.4830009938        3.0253395502        3.9149300789
  H        25.6279266459        4.8814260322        2.6889725788
  H        23.2646104326        7.7539630817        4.8477796727
  H        22.1373378344        5.8881935932        6.0751078560
  H        23.8194675795        5.7910296210        1.2650233560
  H        36.3491745261       32.1773572073        3.9935827503
  H        35.2175619115       30.3453475380        2.7304935945
  H        37.5120199596       27.4346887339        4.9131843039
  H        38.6219287395       29.2791804332        6.1871657190
  H        37.0031805314       29.4487042747        1.3138518601
  H        25.7591302885        8.6015627871        4.6495478237
  H        36.4620888571       32.2512357974       12.1202823875
  H        35.3462675102       30.4456287988       13.4263837819
  H        37.5266710705       27.4905546994       11.1855447795
  H        38.6179511642       29.3082133491        9.8670613377
  H        37.0247838414       29.4789954309       14.8660355655
  H        46.1095174544       26.5878111879       11.3856574570
  H        44.6683586153       35.1162366363        7.8139187006
  H        24.4361849093        3.0414173900       12.0878749912
  H        25.5676244527        4.8812254477       13.3375663814
  H        23.1675664032        7.7690920735       11.2410510949
  H        22.0479154047        5.9174314367        9.9908604018
  H        23.7933585931        5.7942227559       14.8166420625
  H        44.9539273139       34.3905742548        9.6953638136
  H        44.9018033207       34.2067585692        6.4907167101
  H        40.6663288981       33.2095488144       10.8535752352
  H        23.1504116136        1.9581766780        8.0052649845
  H        25.7771806445       19.7083971506        3.9757413699
  H        23.6149422722       19.7506843864        2.7372587020
  H        22.3723141151       16.1848203261        4.7957002871
  H        24.5460396606       16.1483090536        6.0261269461
  H        23.7260948267       17.7243888021        1.2460425787
  H        35.1579047921       15.4097797765        4.0529631266
  H        37.2719240704       15.3520660748        2.7369064546
  H        38.6778370640       18.8181220404        4.8619244133
  H        36.5547335275       18.8617453910        6.1807617155
  H        37.2119822448       17.3036836297        1.2518479440
  H        20.3545087517       17.9737797622        4.6673920368
  H        35.1553306764       15.4104378965       12.0847904575
  H        37.2929108644       15.3220535804       13.3690953712
  H        38.7333400423       18.7411224613       11.1915332472
  H        36.5953307466       18.8077328476        9.8994217177
  H        37.2266759251       17.2851005935       14.8030246847
  H        35.1284393206       26.7065062510       11.4223764675
  H        28.5086457409       21.0849919391        7.9804735512
  H        25.7443713168       19.6558521790       12.1265082456
  H        23.5616634165       19.7185322798       13.3415794898
  H        22.3100356156       16.1695888109       11.2596833852
  H        24.4936200956       16.1285350245       10.0388418603
  H        23.7061851296       17.7086236049       14.7962629730
  H        29.0019029778       21.7164440506        9.7683326362
  H        29.1389676489       21.7563421445        6.6147358935
  H        32.0581214658       18.5326396030       11.0141606669
  H        27.4071870735       19.0762938372        8.0954712295
  H        14.8488216020       19.6514476005       12.1366477011
  H        17.0119320331       19.7010821764       13.3785452146
  H        18.3051949405       16.1926998885       11.2531344476
  H        16.1380521402       16.1587350110       10.0108413046
  H        16.9229752400       17.7023031399       14.8436922708
  H        46.1008041621       15.4359386052       12.0673615060
  H        43.9788370592       15.3575524407       13.3751041944
  H        42.5347952129       18.7851886299       11.2137622408
  H        44.6577037384       18.8382827258        9.8953524182
  H        44.0134916892       17.2979882211       14.8399646564
  H        20.2929121875       17.9253373056       11.4191171473
  H        46.0368131869       15.3764947397        4.0463718171
  H        43.9041645349       15.3066453121        2.7545235349
  H        42.5167030812       18.7846397234        4.8710662576
  H        44.6557463740       18.8400771967        6.1644058665
  H        43.9990165284       17.2878196630        1.2893567245
  H        46.1995043408       26.6827519503        4.6234343120
  H        52.7412202246       21.0627000227        8.1947056010
  H        14.8766429584       19.6765603447        3.8991733599
  H        17.0762706166       19.7525910902        2.7172283995
  H        18.3348184324       16.2316913254        4.8422357588
  H        16.1372133970       16.1795352207        6.0337176159
  H        16.9422551991       17.7169848392        1.2912088889
  H        52.3226403609       21.6733777500        6.2942724514
  H        52.0135645533       21.7023601195        9.4957275987
  H        49.0676370149       18.6077439684        5.2042616300
  H        13.2474612355       19.0163439634        7.9772663789
  H        29.9530767489       12.4550949001       12.2335612554
  H        28.8831084855       10.5267472827       13.4065729931
  H        25.2529171720       11.2043902668       11.2028379582
  H        26.3409991378       13.1227917822       10.0247013175
  H        27.1610777494       11.6791641707       14.7914362794
  H        30.9787944980       22.7793720603       12.0606144059
  H        31.9860038165       24.6668233939       13.3474295348
  H        35.6670012806       24.1693784268       11.1781780977
  H        34.6422521182       22.2867260094        9.8889184864
  H        33.6687811061       23.5826542740       14.7710701023
  H        25.7069114691        8.5978655839       11.4035766418
  H        30.9664460822       22.6492202689        3.9577215418
  H        31.9779928017       24.5058071424        2.6397968221
  H        35.6078631217       24.1339666077        4.9208663859
  H        34.5784794248       22.2817155683        6.2427104347
  H        33.6566006186       23.5458894926        1.2171667496
  H        40.5897521372       17.0774696906        4.6667976482
  H        32.5144896727       14.1529532151        8.2526423690
  H        29.8815273099       12.5772152288        3.8841892402
  H        28.8640583597       10.6668887711        2.6322091253
  H        25.2365451355       11.1271233087        4.8978823939
  H        26.2798601746       13.0117742535        6.1653875526
  H        27.1598882350       11.6919847858        1.2399639429
  H        33.2881717940       14.1698891700        6.4254127215
  H        33.4056007859       14.3936496041        9.6084510753
  H        32.2671169899       18.7153016291        5.1877605090
  H        30.2218736611       14.1953546688        8.0898313936
  H        16.1178611337        2.9633920491       12.1290411941
  H        14.9526454597        4.8204955157       13.3217573926
  H        17.3673211452        7.6859286980       11.2111008031
  H        18.5160473750        5.8183838250       10.0113550467
  H        16.7535348882        5.7396014990       14.7714661973
  H        44.8280715875       32.1403239769       11.9771296896
  H        45.9373880023       30.3414882299       13.3066074446
  H        43.6826756101       27.3781948282       11.1524664456
  H        42.5999106862       29.1901068771        9.8098268886
  H        44.2303571547       29.4366216564       14.7690021855
  H        14.8513211123        8.5462251384       11.3632925950
  H        44.8998336659       32.2340325548        3.9318788691
  H        46.0248312251       30.4130190391        2.6524173098
  H        43.7635274469       27.4840512384        4.8454336778
  H        42.6456773399       29.3178181792        6.1244708468
  H        44.2684739609       29.4703428075        1.2183212822
  H        35.0711508394       26.5974609165        4.6628017614
  H        36.6053293687       35.1340240354        8.1806939682
  H        16.1432713358        3.0130836696        3.9046718800
  H        14.9736714097        4.8564723032        2.6889361935
  H        17.3972411606        7.7472610795        4.7541857781
  H        18.5443230467        5.8933443250        5.9817524865
  H        16.7646815246        5.7555503249        1.2192681017
  H        36.2790575163       34.4822832368        6.2731019164
  H        36.3814050816       34.2088598761        9.4994908830
  H        40.5794376427       33.2023743542        5.1542007261
  H        17.4710019578        1.9472676658        7.9740978659
  H        28.9738325711       19.2340943510       12.4462259340
  H        28.6396479326       19.1132298211        3.6737912335
  H        32.3145545865       16.2025122002        3.6142733156
  H        31.3249247664       15.6517724973       12.5750651905
  H        28.3833244133       17.9328861404       14.8173005722
  H        29.8703712945       15.9961898369       15.1534541415
  H        31.7184722882       19.4108987310        1.4882687417
  H        33.4306288811       18.7098037296       16.6113490972
  H        18.8544324050        0.8692956361       12.3353316082
  H        40.5280868619       35.2289288115        3.9520301587
  H        42.3240412268       34.4189218945        3.5903786261
  H        22.0878488033        0.6921877456       12.3513953816
  H        11.5964441605       18.7129923156       12.3827237089
  H        52.2649949313       18.4312831220        3.6773619000
  H        49.2552924297       16.4765416901        3.5842474638
  H        10.1503882579       15.7982424967       12.2925738251
  H        50.8502054741       17.6925555159        3.9541363388
  H        10.0459979764       17.3946633941       12.0519642288
  H        20.2159771748        0.0025341548       12.0418090869
  H        39.1837627009       36.1243573902        3.6862217759
 Ni        30.4831981711       17.6430207773        3.7535082964
 Ni        31.5794587396       17.4502805795       -0.0833357229
 Ni        30.0506036037       19.1162539132       -0.0008079804
 Ni        30.2251780311       17.5489840823       13.3229905643
  O        10.6499542164       14.3651592536        5.4858792211
  O        12.6131520140       14.6575664297        6.5839314467
  O        49.1476590744       16.8459413556        7.9897829534
  O        50.3502436918       20.9356993917        5.6481006162
  O        48.3485244871       20.5931689952        6.6659930744
  O        11.0517644609       17.0537867039        6.5007283467
  O        50.3209119074       20.8816174179       10.4068442741
  O        48.3466758812       20.5866527290        9.3271367058
  O        49.5434927199       18.2483682918       10.0682628406
  O        12.3589830445       18.6245942244        7.9997066336
  O        48.6932380511       14.1486403384        6.7513011965
  O         8.2098761049       14.2104737930        9.3225620798
  O        10.7353251558       14.5068105955       10.6642920912
  O        12.5717880478       14.5828493776        9.3285039830
  O        22.8445728267        2.0428029661        5.4871705134
  O        21.6062994101        3.5926795450        6.5890057145
  O        42.0582074114       34.1374699550        7.9790263352
  O        37.9814953591       33.1369067520        5.5727000562
  O        39.2191068141       31.5768223829        6.6675776649
  O        20.3085164567        1.0398557969        6.5021470039
  O        38.0244453353       33.1854068675       10.4157336275
  O        39.2176833714       31.5824845282        9.3284120790
  O        40.6522425031       33.7692907584       10.0602968886
  O        18.2556758925        1.3760813014        7.9967996411
  O        44.6222347272       35.1005089250        6.7587564345
  O        24.2054007968        0.0000289328        9.3207709557
  O        22.7529954667        2.0579758920       10.5838701458
  O        21.6245164271        3.5961302898        9.3427263005
  O        27.4927936180       18.7506181578        5.4935422111
  O        26.7602281005       16.9369701017        6.6531550178
  O        30.6970129736       19.3494445221        8.0091130003
  O        33.5477829545       16.3314300339        5.6569189824
  O        34.2592455070       18.1894211830        6.7384605423
  O        29.5801609932       17.0722551694        6.5747313889
  O        33.5533772999       16.3381700055       10.4136628831
  O        34.3085926657       18.2356981756        9.4199884831
  O        31.6524319552       18.3156036017       10.1569336120
  O        30.3268378073       15.1611487593        8.0826869253
  O        28.5507463877       21.0356824387        6.9049575440
  O        28.5153993353       20.9546845993        9.4094564977
  O        27.4567579089       18.6815131531       10.6534495918
  O        26.6958492180       16.9286058442        9.4102045485
  O        13.1485909641       18.6930131472       10.5873661404
  O        13.9195682409       16.9163102517        9.4051610411
  O        50.5959223326       19.3501499134        8.0206411797
  O        47.6827199551       16.3270825492       10.4175251216
  O        46.9490608922       18.1752874392        9.3266885624
  O        11.0696554559       17.0156012055        9.4896208319
  O        47.6752149337       16.3358181030        5.6530668069
  O        46.9258249055       18.2359689643        6.6639382191
  O        49.5687685902       18.3176670945        5.9824718846
  O        10.3186125206       15.1002012727        7.9971197329
  O        52.6707521224       21.0278766649        9.2418303380
  O        12.1468265791       20.8911931192        6.6732685657
  O        13.1077755130       18.6137202000        5.3257040229
  O        13.9572541772       16.9870813722        6.6653262586
  O        29.9984834019       14.4480499841       10.7261772639
  O        28.0910081000       14.6551892997        9.4939033176
  O        32.0982950307       16.9143484696        8.0143759300
  O        30.9540123322       20.9507872057       10.4134813836
  O        32.9556233584       20.5954549805        9.4076469613
  O        29.5656002793       17.0743821884        9.5723539012
  O        30.8805406004       20.9511675828        5.7410185302
  O        32.9105102907       20.5111591772        6.6600313930
  O        31.5091230094       18.2397465012        5.5673554159
  O        28.2938357112       18.6801962222        8.0711295954
  O        32.4894033273       14.2169332935        9.3281323439
  O        32.4041522851       14.2168954153        6.8253272510
  O        29.9119090916       14.4371731331        5.4932600615
  O        28.0345980033       14.5926370839        6.7553337007
  O        17.8892190182        1.9666190312       10.6628151819
  O        18.9562397277        3.5271572019        9.4079586121
  O        39.1685646688       34.1387503202        7.9972463216
  O        43.2802345116       33.0589301247       10.3317530781
  O        42.0344870293       31.5064023579        9.2417082077
  O        20.3176843918        1.0368373234        9.4800064092
  O        43.2760916119       33.1825214598        5.5748662939
  O        42.0052612378       31.5841153460        6.5830527625
  O        40.5792092638       33.7753652766        5.9360825115
  O        22.3674321737        1.3847296284        7.9979209064
  O        36.6728001847       35.0997139848        9.2333381357
  O        16.4457146237        0.0642800859        6.6682495598
  O        17.9364964235        2.0434181436        5.3263998778
  O        18.9191116643        3.5931698791        6.6659393064
  O        29.5693383726       19.2744217583        3.9217781878
  O        29.7446414754       18.8439652645       11.9910663845
  O        31.4330697661       16.0426507113        3.9982376355
  O        31.2611250737       16.4829957830       12.0697980514
  O        30.6783199661       16.3377773861       14.7285253974
  O        32.6754966290       18.3206368318       17.0864403961
  O        30.8440509353       20.0006265308        1.4928311217
  O        29.0749526236       18.5463309257       14.5066667282
  O        39.4568206140       35.2437886211        4.0020043671
  O        19.1423288817        0.0048826499       11.9904757931
  O        41.9695364019       35.1726860454        4.0870750143
  O        21.6914113370       -0.0693362261       11.8958982218
  O        51.3651235993       18.6143260096        4.0054149824
  O        10.7507627648       18.7472061099       11.9049423648
  O        50.0795764363       16.4127605381        4.0917926558
  O         9.5243857460       16.4830756783       11.9912176705
 Zr         9.2974340552       16.0527649740        6.1824256315
 Zr        49.8366693417       16.0067306988        9.7464944402
 Zr        22.0734415607        0.0303799040        6.1887764954
 Zr        42.4610411375       35.1540918322        9.8008482259
 Zr        29.5753930370       19.1237783022        6.2557352996
 Zr        29.5802924984       19.1625495038        9.8571595964
 Zr        11.0381881087       19.0520187859        9.8278260671
 Zr        11.0440609858       19.1548423989        6.2510885313
 Zr        31.3310762751       16.1129086840        9.8770015471
 Zr        31.3769463948       15.9827246477        6.2229423827
 Zr        18.6012946560       -0.0012303913        9.7635239692
 Zr        18.5069051981       -0.0073294665        6.2137636051
 Zr        12.3025489352       16.3233847411        7.9904462294
 Zr        48.6163990250       18.8330191333        8.0106501319
 Zr        20.3158758804        2.4741602954        7.9904286303
 Zr        40.6434512216       32.6874919607        7.9787409593
 Zr        28.3468021704       16.3357557974        8.0731008132
 Zr        32.6568112677       18.8502223198        8.1236032006
  H        29.7491237557       17.2116761577        2.5889753932
  H        30.3796881470       19.7782624082        2.3484529320
