     566
 i =       93, E =     -4712.2567462385
  C        11.8588914722       14.0534319263        5.7415185617
  C        12.4563776321       12.8905447924        5.0232564276
  C        11.7046796459       12.1715654294        4.0816229535
  C        12.2810789915       11.1093803639        3.3892799821
  C        13.6216881149       10.7396394914        3.6169671526
  C        14.3548695013       11.4432819795        4.5903764243
  C        13.7819653308       12.5082483659        5.2818845769
  C        14.2611849333        9.6489541724        2.8435712379
  C        14.2563553830        9.6568239947        1.4218751560
  C        13.7432213585       10.7589671509        0.6679768958
  C        49.1269519083       21.2332583153        5.8795528459
  C        48.5502402026       22.4012578230        5.1525512808
  C        49.3002000633       23.0684968974        4.1714449156
  C        48.7332512105       24.1076536943        3.4382776081
  C        47.4027567080       24.5094022087        3.6670127516
  C        46.6719029871       23.8606383589        4.6806745509
  C        47.2343674495       22.8157250802        5.4099923024
  C        46.7724426332       25.5870557688        2.8697454084
  C        46.7613954561       25.5574074628        1.4479874192
  C        47.2613555076       24.4423316109        0.7044863076
  C        14.8602230576        8.5704563897        0.7085975087
  C        14.8920236225        8.5970324030        3.5202108992
  C        49.1134035873       21.2035622347       10.1452916707
  C        48.5280904606       22.3649446416       10.8724659532
  C        49.2671527293       23.0253515936       11.8657070730
  C        48.6908279955       24.0599250928       12.5971519473
  C        47.3605802691       24.4570704443       12.3585818451
  C        46.6404050975       23.8125581845       11.3346280594
  C        47.2139557463       22.7766590409       10.6028488950
  C        46.7220493628       25.5319709734       13.1496222688
  C        46.7336601591       25.5282439969       14.5713303867
  C        47.2490912842       24.4290359839       15.3277271254
  C        40.6378731421       17.1538815504       15.3242655958
  C        40.6621248111       17.2087023434       12.5151329664
  C        11.8829958654       14.0864744117       10.2855356385
  C        12.4722580880       12.9106940154       10.9897384619
  C        11.7147681030       12.1775464914       11.9159276171
  C        12.2813417162       11.0950684331       12.5843028380
  C        13.6201386579       10.7212594387       12.3524104848
  C        14.3580800417       11.4367715363       11.3915357147
  C        13.7926723060       12.5179683360       10.7188768883
  C        14.2536992015        9.6244755665       13.1228014925
  C        14.2524060493        9.6444419411       14.5446386839
  C        13.7426301376       10.7534277061       15.2917232014
  C        22.5098906144        3.2434591873        5.7510597900
  C        23.2209173826        4.3466735721        5.0458927286
  C        24.2164222549        4.0631398382        4.0992032074
  C        24.8428529039        5.1001549065        3.4131328391
  C        24.4889244023        6.4425828473        3.6534388950
  C        23.5201835896        6.7175793698        4.6358861750
  C        22.8894436303        5.6824600749        5.3207770184
  C        25.0976710953        7.5475321803        2.8786552666
  C        25.0789136969        7.5401336682        1.4570507181
  C        24.3828352911        6.5400023719        0.7065260163
  C        38.2988927735       31.9270839879        5.8496179495
  C        37.5591236625       30.8393928253        5.1434288745
  C        36.5929774635       31.1491979711        4.1733956903
  C        35.9609966602       30.1340646826        3.4599016273
  C        36.2790299416       28.7813119569        3.6921924813
  C        37.2163534265       28.4788991055        4.6984400355
  C        37.8520766669       29.4931281040        5.4117268068
  C        35.6621702134       27.6951433110        2.8943747229
  C        35.6911529029       27.7120211032        1.4720091078
  C        36.4011581669       28.7119000470        0.7352277876
  C        25.7040252305        8.6116278477        0.7412807188
  C        25.6906481837        8.6222121031        3.5532130244
  C        38.3266084383       31.9600107340       10.1583807153
  C        37.5998914992       30.8886779356       10.9025044635
  C        36.6650588699       31.2025530760       11.9016054090
  C        36.0444820136       30.1889988060       12.6303168621
  C        36.3426307579       28.8331568636       12.3855801092
  C        37.2571325820       28.5292464602       11.3578902586
  C        37.8797428141       29.5395634811       10.6301018208
  C        35.7211881641       27.7381468599       13.1691022778
  C        35.7210970460       27.7340614649       14.5922126712
  C        36.4144128391       28.7231669377       15.3583038199
  C        46.1355583317       26.6208303693       15.2814718993
  C        46.0880881797       26.5803428782       12.4735788036
  C        22.4641093887        3.2559955376       10.2555778165
  C        23.1655493086        4.3641288991       10.9725833033
  C        24.1757558341        4.0770422960       11.9045342485
  C        24.8101721402        5.1064322262       12.5958921652
  C        24.4544033480        6.4527134211       12.3789229045
  C        23.4679369824        6.7331678942       11.4145330704
  C        22.8294007223        5.7040976264       10.7229100483
  C        25.0862234254        7.5492487921       13.1552945612
  C        25.0739683769        7.5404737795       14.5780337014
  C        24.3786016779        6.5412144750       15.3297193303
  C        26.6155936713       17.8583623224        5.7813306231
  C        25.3109068413       17.9065251064        5.0574942466
  C        25.0500904102       18.9069032152        4.1074020869
  C        23.8382897680       18.9267518778        3.4200026034
  C        22.8501358359       17.9507711515        3.6613584532
  C        23.1068637233       16.9732464513        4.6415380987
  C        24.3209154807       16.9469441636        5.3259213742
  C        21.5775881967       17.9376513620        2.8960938583
  C        21.5779917608       17.9223928363        1.4732187533
  C        22.7838287833       17.8081068391        0.7114104582
  C        34.4413974934       17.1938433722        5.9222106151
  C        35.7342731519       17.1505157721        5.1789574428
  C        35.9397209893       16.1830654541        4.1829889701
  C        37.1185293743       16.1744591942        3.4432016210
  C        38.1235879415       17.1317600736        3.6810657303
  C        37.9209714652       18.0799779269        4.7015730410
  C        36.7387562378       18.0945565656        5.4380979421
  C        39.3777657698       17.1423120153        2.8951972867
  C        39.3754759763       17.1596987940        1.4736442454
  C        38.1690793075       17.2773729121        0.7136697867
  C        20.3305805766       17.9387721092        0.7658431652
  C        20.3531588349       17.9363957213        3.5791955810
  C        34.4926898428       17.2562751443       10.1686407363
  C        35.7936861275       17.1909128873       10.8937705197
  C        36.0405781793       16.1725414300       11.8272526045
  C        37.2202465075       16.1673366664       12.5654555712
  C        38.1865200889       17.1739716497       12.3799945502
  C        37.9511844384       18.1661648956       11.4106622341
  C        36.7652770784       18.1806787107       10.6813132594
  C        39.4315661469       17.1906641409       13.1783392309
  C        39.4027907960       17.1823642246       14.5984702898
  C        38.1817482434       17.2845896419       15.3366821657
  C        35.0823865649       26.6582262771       15.2953950031
  C        35.1302858832       26.6674363502       12.4854595661
  C        26.5615221122       17.8229640871       10.3205243951
  C        25.2475393675       17.8734946037       11.0229192955
  C        24.9714029865       18.8971331914       11.9420721356
  C        23.7551238525       18.9218401562       12.6181980556
  C        22.7851778149       17.9244857780       12.3966505031
  C        23.0531998975       16.9268188245       11.4418615382
  C        24.2709098964       16.8988643076       10.7651484457
  C        21.5235016610       17.9080128718       13.1730300320
  C        21.5502009424       17.9076939838       14.5945399261
  C        22.7705699287       17.8023684193       15.3347199981
  C        14.0456160373       17.8284773041       10.2890208510
  C        15.3487487918       17.8847490230       11.0152111564
  C        15.6055699052       18.8895055485       11.9610478601
  C        16.8140510679       18.9101407572       12.6544042883
  C        17.7991913236       17.9287507345       12.4238697752
  C        17.5467971493       16.9476683723       11.4465006597
  C        16.3378676140       16.9225279632       10.7545556490
  C        19.0683638066       17.9133524994       13.1916203912
  C        19.0687149270       17.9150648949       14.6138529454
  C        17.8622941876       17.8157099420       15.3758511618
  C        46.8079951733       17.2216173245       10.1600057280
  C        45.5216678815       17.1700190750       10.9103862725
  C        45.3124835602       16.1969453530       11.8993795532
  C        44.1334289312       16.1913505932       12.6393714011
  C        43.1361377352       17.1592159619       12.4108154228
  C        43.3431975088       18.1127634006       11.3962232601
  C        44.5225604766       18.1220581833       10.6573098966
  C        41.8837867849       17.1793270779       13.1976111984
  C        41.8861725834       17.1691590459       14.6189070747
  C        43.0939925003       17.2561691272       15.3803333430
  C        20.3161267386       17.9300749884       15.3208475899
  C        20.2913655475       17.8906268883       12.5077002073
  C        46.7857802727       17.2305982983        5.8911274165
  C        45.4808267908       17.1250178051        5.1795667803
  C        45.2603583324       16.1294046228        4.2161009240
  C        44.0717540193       16.1070975396        3.4908651065
  C        43.0753541054       17.0772106369        3.7130869706
  C        43.2849780279       18.0407509158        4.7169766042
  C        44.4748375713       18.0697334197        5.4367786608
  C        41.8312482901       17.1075204730        2.9141302768
  C        41.8595646333       17.1312119983        1.4938198218
  C        43.0811356608       17.2360377137        0.7566865358
  C        46.1533035280       26.6372411455        0.7262353048
  C        46.1624470184       26.6561572399        3.5358749605
  C        14.0459196879       17.8316839338        5.7085875080
  C        15.3670186636       17.9060457367        5.0182591265
  C        15.6408303028       18.9217636995        4.0900457107
  C        16.8699638222       18.9591760002        3.4354652254
  C        17.8532069224       17.9798855049        3.6827074844
  C        17.5862772353       16.9932224979        4.6493227684
  C        16.3592166419       16.9553937614        5.3076519834
  C        19.1202692199       17.9557246183        2.9131733121
  C        19.0958371905       17.9346826633        1.4916398432
  C        17.8755594861       17.8242835957        0.7519508206
  C        28.7840478370       14.1227693790       10.3964983746
  C        28.1863210597       12.9443288580       11.0858266025
  C        28.9169190359       12.2096372328       12.0315958274
  C        28.3281853594       11.1254569006       12.6785305569
  C        26.9962172974       10.7529064324       12.4045414372
  C        26.2889989798       11.4687649509       11.4216779040
  C        26.8746875434       12.5519804801       10.7725498240
  C        26.3338069964        9.6652150762       13.1610299300
  C        26.3156930638        9.6890972171       14.5820650819
  C        26.8101732351       10.8035119675       15.3312825460
  C        32.1908174218       21.2093136741       10.1482158508
  C        32.7634257541       22.3878442871       10.8633546790
  C        32.0084204818       23.0495941686       11.8446228419
  C        32.5626374509       24.1012238387       12.5691790501
  C        33.8888582745       24.5180313314       12.3392486916
  C        34.6241860018       23.8743907729       11.3250359989
  C        34.0720526457       22.8204105478       10.5990733250
  C        34.5080151306       25.5990133652       13.1426052443
  C        34.4918116044       25.5740741247       14.5654898912
  C        33.9805030197       24.4606577938       15.3045830852
  C        25.7059932319        8.6082175332       15.2965506752
  C        25.7021121993        8.6138321583       12.4833123590
  C        32.0787532846       21.1992306138        5.8758527345
  C        32.6450287614       22.3650753650        5.1345368371
  C        31.9065301173       23.0147935716        4.1332938969
  C        32.4748904521       24.0573713458        3.4029644008
  C        33.7961917412       24.4801958247        3.6518076054
  C        34.5155154674       23.8436785353        4.6821370663
  C        33.9522652424       22.7983860831        5.4090728835
  C        34.4334202200       25.5661338692        2.8683762781
  C        34.4528314670       25.5581078169        1.4454712823
  C        33.9603379327       24.4536053850        0.6814375978
  C        40.6237517088       17.1381517374        0.7681022243
  C        40.5995792664       17.1328852415        3.5769834458
  C        28.7408368816       14.0716333268        5.7856213177
  C        28.1266057000       12.9192785996        5.0619366663
  C        28.8604415491       12.2178189360        4.0930904139
  C        28.2788985157       11.1579145298        3.4028580420
  C        26.9464278234       10.7743070285        3.6542407028
  C        26.2300254177       11.4612310529        4.6520518927
  C        26.8110593381       12.5209916420        5.3460518604
  C        26.3048828759        9.6855032410        2.8798330426
  C        26.3013003723        9.7000907017        1.4579150620
  C        26.8016445881       10.8099733700        0.7071837708
  C        18.1354179004        3.1808995078       10.3171417332
  C        17.4060193397        4.2781282037       11.0156899664
  C        16.3902127242        3.9997413038       11.9431045515
  C        15.7424445335        5.0397044368       12.6065882395
  C        16.0944157448        6.3834274808       12.3670041275
  C        17.0838770278        6.6529848073       11.4033355816
  C        17.7330082580        5.6156570898       10.7382875873
  C        15.4700693705        7.4911089087       13.1300732221
  C        15.4853288637        7.4904022125       14.5517910820
  C        16.1868898520        6.4967789175       15.3049452263
  C        42.9457043795       31.8595659929       10.0728286837
  C        43.6461655291       30.7718427698       10.8167309461
  C        44.5915975744       31.0932291587       11.8028678165
  C        45.1973643160       30.0877309691       12.5505568834
  C        44.8710848106       28.7346473127       12.3356422508
  C        43.9453772625       28.4202433992       11.3223411714
  C        43.3364882967       29.4253427391       10.5742880640
  C        45.4887122481       27.6553739596       13.1388496023
  C        45.4927980297       27.6809344989       14.5605531397
  C        44.8056529049       28.6889378352       15.3071869728
  C        14.8563916716        8.5629071325       15.2641667107
  C        14.8748666393        8.5629254525       12.4514936709
  C        42.9463695488       31.9616240234        5.8090382907
  C        43.6916006126       30.8854336473        5.0955309656
  C        44.6563008951       31.1913575088        4.1233492394
  C        45.2778341471       30.1717853139        3.4055936341
  C        44.9539533850       28.8214769751        3.6431036445
  C        44.0203489361       28.5237870129        4.6537587229
  C        43.3920759628       29.5405437764        5.3659590854
  C        45.5630251933       27.7240876703        2.8578332198
  C        45.5332772430       27.7173623339        1.4365336330
  C        44.8269126956       28.7075619214        0.6835830133
  C        35.0650334955       26.6485345972        0.7417159720
  C        35.0496797994       26.6221754250        3.5527856536
  C        18.1486718778        3.2469293683        5.7066167618
  C        17.4301303335        4.3437771279        4.9972749726
  C        16.4147325837        4.0525239757        4.0739068464
  C        15.7664335729        5.0831637319        3.3985187603
  C        16.1213231534        6.4283726303        3.6210326140
  C        17.1129742841        6.7117469540        4.5780042759
  C        17.7606300148        5.6828234490        5.2577810511
  C        15.4907620704        7.5240596611        2.8486066373
  C        15.4964861808        7.5073696343        1.4274711976
  C        16.1931836290        6.5056315828        0.6807597663
  H        10.6725239452       12.4656184964        3.9046493465
  H        11.6948103008       10.5508451553        2.6627674471
  H        15.3919534086       11.1688140119        4.7720097314
  H        14.3515061162       13.0715441712        6.0172052312
  H        13.3763648935       11.6311565459        1.2012871642
  H        50.3228807949       22.7484137084        3.9866157370
  H        49.3197055713       24.6228722411        2.6806430294
  H        45.6424771296       24.1615494366        4.8639878740
  H        46.6634349970       22.2905977350        6.1722183196
  H        47.6299542510       23.5759779881        1.2461655763
  H        14.8725485644        8.5883502503        4.6085211113
  H        50.2870692247       22.7022467035       12.0608827089
  H        49.2691349354       24.5751518284       13.3608744732
  H        45.6111984667       24.1102275635       11.1451675061
  H        46.6533380358       22.2548886607        9.8308765538
  H        47.6079353041       23.5519348706       14.7968495786
  H        40.6700594777       17.1877459285       11.4270795020
  H        48.6871628770       14.0949715110        7.8000450886
  H        10.6813070549       12.4666285302       12.0933582570
  H        11.6895836007       10.5246791837       13.2970300442
  H        15.3935118923       11.1588913638       11.2055833162
  H        14.3650569133       13.0873019719        9.9903523482
  H        13.3759340338       11.6221039874       14.7530993688
  H        47.9302464822       14.2183329364        9.7108845661
  H        47.7801713053       14.3740017025        6.4953235955
  H        49.0851566697       18.5531355286       10.8677189966
  H        10.4164551008       14.1342337896        7.9986167923
  H        24.4774206690        3.0238766209        3.9123295539
  H        25.6161664792        4.8804800270        2.6802450843
  H        23.2395871972        7.7512781078        4.8270054946
  H        22.1199792102        5.8850882733        6.0617188783
  H        23.8201858549        5.7817394701        1.2433266735
  H        36.3611473009       32.1939934523        3.9804983645
  H        35.2119792608       30.3808957817        2.7106160223
  H        37.4714738138       27.4380370656        4.8867646872
  H        38.5999907866       29.2644635619        6.1674236894
  H        36.9677955968       29.4600654554        1.2818715039
  H        25.7205972518        8.6040786545        4.6411485877
  H        36.4440784845       32.2480427121       12.1045614238
  H        35.3141294357       30.4414247385       13.3959451432
  H        37.5020148828       27.4876484169       11.1605410237
  H        38.6064608192       29.3064697566        9.8555243007
  H        36.9920445756       29.4796825304       14.8349400051
  H        46.1096328606       26.5878581829       11.3855462186
  H        44.6683041804       35.1161958576        7.8140005679
  H        24.4540190936        3.0385259225       12.0691077953
  H        25.5961361478        4.8764836520       13.3121324302
  H        23.1813617365        7.7678806563       11.2377156159
  H        22.0519229638        5.9183303742        9.9932054496
  H        23.8123737545        5.7843706738       14.7947119351
  H        44.9537652662       34.3903033734        9.6951343492
  H        44.9019004640       34.2068349286        6.4907028345
  H        40.6654407456       33.2087412012       10.8528214597
  H        23.1503426473        1.9579054528        8.0043076525
  H        25.8070008276       19.6656548304        3.9225493734
  H        23.6418463368       19.7080099513        2.6888807572
  H        22.3559560195       16.2102596605        4.8363720128
  H        24.5299331357       16.1776723286        6.0656383608
  H        23.7269424473       17.6934545451        1.2380771500
  H        35.1576572866       15.4504618947        3.9982407167
  H        37.2777014425       15.4168145906        2.6790055178
  H        38.6896522135       18.8271345039        4.8880089707
  H        36.5646331546       18.8412482973        6.2094300253
  H        37.2278669641       17.3924027061        1.2437036550
  H        20.3607281397       17.9727074790        4.6671865096
  H        35.2971422399       15.3910215235       11.9667494858
  H        37.4098609047       15.3778600953       13.2894637971
  H        38.6939561607       18.9475612299       11.2637678283
  H        36.5587383024       18.9633544528        9.9550578757
  H        37.2501782141       17.4030466813       14.7903991071
  H        35.1103157029       26.6912597467       11.3974880744
  H        28.5120370318       21.0807737068        7.8892555229
  H        25.7201012664       19.6677904182       12.1098781895
  H        23.5418476785       19.7176031191       13.3286177071
  H        22.3113957983       16.1507128916       11.2649893965
  H        24.4950372116       16.1162188586       10.0442451799
  H        23.7033666656       17.6841434249       14.7910051126
  H        28.9773206770       21.7214780156        9.7747819945
  H        29.1773329232       21.7231726679        6.5558712837
  H        32.1440870254       18.5535138904       11.0231490897
  H        27.4087931433       19.0725914043        8.0839664686
  H        14.8478714299       19.6497873707       12.1370144253
  H        17.0104104411       19.6954864010       13.3811719540
  H        18.2972638746       16.1821139790       11.2602975382
  H        16.1309707946       16.1522368967       10.0154474957
  H        16.9195877009       17.6987235080       14.8492653879
  H        46.0904551882       15.4590129256       12.0805095381
  H        43.9691081403       15.4289605456       13.3976354482
  H        42.5805679284       18.8678804154       11.2175083513
  H        44.7010420582       18.8715972484        9.8899908132
  H        44.0368556005       17.3719094611       14.8534879357
  H        20.2840129332       17.9138094494       11.4194277928
  H        46.0363971336       15.3888864457        4.0363048987
  H        43.9029380459       15.3358086739        2.7425371374
  H        42.5195937896       18.7932496982        4.8949246172
  H        44.6599593537       18.8333007604        6.1882216822
  H        44.0143334254       17.3350823488        1.3035627899
  H        46.1993480195       26.6827697334        4.6233166331
  H        52.7413062521       21.0626858244        8.1946975012
  H        14.8805913096       19.6757867034        3.8983093921
  H        17.0812555001       19.7499326397        2.7188255498
  H        18.3365339907       16.2306895234        4.8482799890
  H        16.1381184727       16.1806136685        6.0377395793
  H        16.9427583331       17.7139817249        1.2967217279
  H        52.3226981849       21.6733936734        6.2942044657
  H        52.0134558438       21.7022527391        9.4956361014
  H        49.0678831508       18.6077372887        5.2038920198
  H        13.2477844698       19.0159720493        7.9772986123
  H        29.9434926656       12.5019093823       12.2430044254
  H        28.8955689092       10.5541179735       13.4100548459
  H        25.2600103352       11.1911899184       11.2025852411
  H        26.3259366239       13.1245880411       10.0289101354
  H        27.1694699032       11.6760934158       14.7942137779
  H        30.9923484460       22.7125773681       12.0367580158
  H        31.9697755590       24.6128181671       13.3242154149
  H        35.6502690194       24.1850076829       11.1388914546
  H        34.6480917169       22.3012852198        9.8364004073
  H        33.6296275428       23.5888765760       14.7598904786
  H        25.7342542536        8.5973754077       11.3952924739
  H        30.8915048693       22.6805492089        3.9300900273
  H        31.8936191923       24.5603717887        2.6332019498
  H        35.5383515650       24.1560727622        4.8823061938
  H        34.5162824704       22.2867167845        6.1852993031
  H        33.5935257975       23.5766460947        1.2073738583
  H        40.5901832812       17.0905759054        4.6644352718
  H        32.5156911989       14.1485280841        8.1548051630
  H        29.8874725101       12.5173328368        3.8984639711
  H        28.8553213132       10.6104914725        2.6602869636
  H        25.1990179110       11.1772913400        4.8528727194
  H        26.2545229696       13.0679927168        6.1033668923
  H        27.1536486936       11.6872846434        1.2421338296
  H        33.3052011139       14.2571812410        6.3869574332
  H        33.4094883830       14.3435722513        9.5399307954
  H        32.1166648646       18.4808965248        5.1491672135
  H        30.1791995733       14.1420261905        8.0775459834
  H        16.1181272618        2.9632317894       12.1294383282
  H        14.9529446996        4.8203039074       13.3221871642
  H        17.3664198358        7.6858531102       11.2103432101
  H        18.5151229688        5.8183514058       10.0105313824
  H        16.7534632554        5.7394644111       14.7714265876
  H        44.8277582226       32.1403344852       11.9770826530
  H        45.9371705855       30.3415626408       13.3065336321
  H        43.6828398578       27.3781483395       11.1521505378
  H        42.5999640810       29.1899814890        9.8095381337
  H        44.2303212479       29.4367202607       14.7688776137
  H        14.8511845020        8.5462011369       11.3632714358
  H        44.8999300845       32.2340424482        3.9320192314
  H        46.0248214853       30.4130442152        2.6524454114
  H        43.7632960951       27.4840608468        4.8452170386
  H        42.6454862251       29.3177650995        6.1243242889
  H        44.2684213982       29.4704535796        1.2181798702
  H        35.0086499485       26.6332514075        4.6403816758
  H        36.6052596356       35.1339228874        8.1806966979
  H        16.1434807459        3.0129621560        3.9043670367
  H        14.9739543191        4.8563479542        2.6885976353
  H        17.3967684268        7.7471817242        4.7546299387
  H        18.5437291008        5.8932769804        5.9823048060
  H        16.7646886574        5.7554350864        1.2191864505
  H        36.2788117581       34.4821107165        6.2732719142
  H        36.3810353988       34.2090110073        9.4996892426
  H        40.5791687692       33.2017819348        5.1540099826
  H        17.4710944127        1.9468799476        7.9741003745
  H        28.5841092323       19.0446037651       12.2555484880
  H        28.8104823308       18.7286285078        3.7813181045
  H        31.5042763568       15.6138068962        3.5334106564
  H        31.2698555459       15.8121221546       12.8241387851
  H        29.5545614792       15.5909515583       14.2210630565
  H        32.4289248615       16.9635757870        1.3375045788
  H        18.8536579113        0.8689968713       12.3352012706
  H        40.5282419298       35.2290654959        3.9521129798
  H        42.3237466426       34.4188225178        3.5904441350
  H        22.0875495570        0.6922449997       12.3514476878
  H        11.5967276695       18.7130890915       12.3826732975
  H        52.2645396348       18.4313842761        3.6766478905
  H        49.2551225708       16.4768661791        3.5844611040
  H        10.1503149523       15.7981774998       12.2926855901
  H        50.8499446932       17.6923392630        3.9541873392
  H        10.0462788234       17.3945412824       12.0519171631
  H        20.2150494567        0.0021801684       12.0419356327
  H        39.1837988730       36.1246007269        3.6866257354
 Ni        30.6029711723       17.6289751686        2.6706604165
 Ni        30.6496696798       17.0059732151       -0.1730520437
 Ni        29.9283773784       18.8458546093        0.7496004813
 Ni        29.9735730716       17.7944681145       13.4955598573
  O        10.6500406279       14.3650949210        5.4858563626
  O        12.6132055589       14.6574980836        6.5839000432
  O        49.1481174097       16.8458228296        7.9896575589
  O        50.3503350608       20.9358297878        5.6479885475
  O        48.3486102973       20.5934023234        6.6658475215
  O        11.0518486145       17.0538093173        6.5006697231
  O        50.3211492521       20.8816484960       10.4068377937
  O        48.3468053643       20.5868139532        9.3271853563
  O        49.5440048604       18.2484282864       10.0682215552
  O        12.3591245700       18.6246189729        7.9996196443
  O        48.6932808775       14.1485460755        6.7513113624
  O         8.2099106281       14.2103757802        9.3225297918
  O        10.7352804106       14.5067062179       10.6643037658
  O        12.5717723990       14.5827889713        9.3285116394
  O        22.8441977973        2.0422168723        5.4873351202
  O        21.6053951834        3.5920274752        6.5895212904
  O        42.0578679893       34.1370913806        7.9790487645
  O        37.9813001870       33.1360635753        5.5721596624
  O        39.2168074401       31.5744687569        6.6651889094
  O        20.3082814780        1.0393801775        6.5021292597
  O        38.0239531893       33.1846099400       10.4157600555
  O        39.2173884279       31.5821312166        9.3283456202
  O        40.6522296236       33.7692610183       10.0600704297
  O        18.2557976370        1.3757242855        7.9967924949
  O        44.6222299083       35.1005350318        6.7588069861
  O        24.2054102479       -0.0000097132        9.3207988879
  O        22.7531329732        2.0575777491       10.5837010027
  O        21.6247889247        3.5963141276        9.3432260884
  O        27.4958579559       18.7505533618        5.4935134530
  O        26.7617624090       16.9362725737        6.6535788941
  O        30.6531549066       19.3447816222        8.0722871205
  O        33.5926392667       16.2756174216        5.6720279126
  O        34.2714715038       18.1694667338        6.7383356092
  O        29.5756267097       17.0411846088        6.5826248919
  O        33.6349209829       16.3331413392       10.4058789691
  O        34.3062759031       18.2491181626        9.3966940126
  O        31.6646466984       18.2442423565       10.2377517010
  O        30.2951451551       15.1059335214        8.0764058058
  O        28.5522657511       21.0302558118        6.8369318043
  O        28.5195322937       20.9472880690        9.4064856703
  O        27.4520798895       18.6771392600       10.6563562023
  O        26.6927528088       16.9288492316        9.4116794791
  O        13.1480153619       18.6930765227       10.5871855150
  O        13.9189872266       16.9161798255        9.4048254230
  O        50.5966041961       19.3503446514        8.0201869948
  O        47.6833544052       16.3270772930       10.4172347334
  O        46.9530953531       18.1764205481        9.3234648997
  O        11.0699418635       17.0154384641        9.4895878560
  O        47.6760164485       16.3354657339        5.6531612683
  O        46.9281463239       18.2358595748        6.6652064076
  O        49.5689106677       18.3176955108        5.9821669440
  O        10.3188659615       15.1000633184        7.9970528940
  O        52.6707752592       21.0278835143        9.2418006302
  O        12.1468751486       20.8912223224        6.6732244810
  O        13.1083246304       18.6136174330        5.3255755682
  O        13.9572924046       16.9870596081        6.6653153254
  O        29.9542815532       14.5096179939       10.7412331135
  O        28.0722520929       14.6587759049        9.4830042741
  O        32.0772593193       16.8495006972        8.0680388036
  O        30.9892608295       20.8824278441       10.4218399744
  O        32.9552302948       20.5892940885        9.3291457627
  O        29.5719593201       17.0684249913        9.5791118051
  O        30.8528941382       20.8822685108        5.6578682199
  O        32.8701641159       20.5843008615        6.6658575166
  O        31.6807922109       18.2501698124        5.9873217996
  O        28.2945561545       18.6743834421        8.0753551589
  O        32.4921850067       14.2089144929        9.2419052813
  O        32.4026483049       14.2145436197        6.7461419142
  O        29.9072213674       14.4451358529        5.4209790415
  O        28.0480043550       14.5855465107        6.7378919532
  O        17.8892196580        1.9665335218       10.6627896385
  O        18.9562191442        3.5270970910        9.4079675920
  O        39.1684570315       34.1384266279        7.9972026644
  O        43.2801893897       33.0589008457       10.3316524179
  O        42.0342766350       31.5064651921        9.2416114505
  O        20.3174933149        1.0365116421        9.4801592612
  O        43.2760576118       33.1825275471        5.5748858063
  O        42.0051761387       31.5841067869        6.5830250986
  O        40.5788438975       33.7747165596        5.9359473267
  O        22.3672693701        1.3845942780        7.9980255181
  O        36.6728197577       35.0996846438        9.2333423601
  O        16.4456330830        0.0641118632        6.6682414722
  O        17.9364906668        2.0433055409        5.3264102387
  O        18.9190315376        3.5930792714        6.6659956028
  O        29.7394562307       18.6899253737        4.0723755527
  O        29.5580457588       18.9958839464       12.1422834667
  O        31.3810000404       16.4092924491        4.0822176563
  O        31.8519959824       15.7494342891       12.0017803816
  O        31.5425238614       16.5586463376        1.4109123428
  O        30.3762829131       16.1186363728       14.1610985292
  O        39.4568783710       35.2438930686        4.0020184855
  O        19.1415532484        0.0045054500       11.9905066318
  O        41.9695290288       35.1727157596        4.0871585064
  O        21.6912781883       -0.0693502807       11.8959360540
  O        51.3648517868       18.6142630292        4.0053149576
  O        10.7510284764       18.7471587839       11.9049309955
  O        50.0795516133       16.4127538499        4.0917055605
  O         9.5244649321       16.4830785628       11.9911974560
 Zr         9.2976415720       16.0526709891        6.1825168292
 Zr        49.8370575066       16.0065734000        9.7462237242
 Zr        22.0732683502        0.0299056400        6.1890698638
 Zr        42.4609343566       35.1537478629        9.8010206320
 Zr        29.6049267000       19.0632454964        6.2522209814
 Zr        29.5823198206       19.1704919601        9.8881935143
 Zr        11.0385231134       19.0518904511        9.8276953150
 Zr        11.0446220557       19.1547582386        6.2506552275
 Zr        31.3469475306       16.0575099210        9.8085724601
 Zr        31.3671514761       16.0078062178        6.2088722881
 Zr        18.6012136650       -0.0015970285        9.7635700987
 Zr        18.5066315854       -0.0078806385        6.2135239620
 Zr        12.3027447136       16.3234739749        7.9902126679
 Zr        48.6178149078       18.8334804951        8.0098728877
 Zr        20.3154987673        2.4737657914        7.9908029175
 Zr        40.6428212848       32.6868381518        7.9782408219
 Zr        28.3429833467       16.3342984641        8.0753145674
 Zr        32.6193227663       18.8259733296        8.0384300995
  H        29.2655877502       17.8889334828        1.7064715115
  H        32.7382447381       16.0987537250       12.2011339642
