     566
 i =       74, E =     -4712.2407697271
  C        11.8587402940       14.0534326256        5.7415717311
  C        12.4562424977       12.8905334106        5.0232077811
  C        11.7046128586       12.1716451134        4.0814688992
  C        12.2810167084       11.1094519887        3.3891230444
  C        13.6215724706       10.7395990655        3.6169185737
  C        14.3546929657       11.4431665451        4.5904284922
  C        13.7817668726       12.5081159176        5.2819513202
  C        14.2610589484        9.6488906350        2.8435347518
  C        14.2561880004        9.6567150724        1.4218317728
  C        13.7431059809       10.7588777393        0.6679247692
  C        49.1266361525       21.2333912173        5.8797415713
  C        48.5497754576       22.4012491477        5.1527011347
  C        49.2997543177       23.0684505076        4.1715726229
  C        48.7328023369       24.1075325972        3.4383263152
  C        47.4022926014       24.5092560620        3.6670110801
  C        46.6714054720       23.8605305003        4.6806802083
  C        47.2338772449       22.8156761215        5.4100867130
  C        46.7720571855       25.5869139640        2.8696986972
  C        46.7611597210       25.5573317635        1.4479358968
  C        47.2611615596       24.4422802538        0.7044283081
  C        14.8599039141        8.5702557556        0.7085577169
  C        14.8918709069        8.5969472094        3.5201725563
  C        49.1130715718       21.2034934049       10.1453168188
  C        48.5277569753       22.3649390373       10.8723131333
  C        49.2668524646       23.0252930142       11.8655783078
  C        48.6905710263       24.0598665582       12.5970352484
  C        47.3603257995       24.4570354543       12.3584826283
  C        46.6401126948       23.8125615431       11.3345284195
  C        47.2136186041       22.7766529917       10.6027166906
  C        46.7218475568       25.5319302313       13.1495606319
  C        46.7335209636       25.5282220421       14.5712703188
  C        47.2489515924       24.4290139512       15.3276662702
  C        40.6169085602       17.0718367332       15.3084929222
  C        40.6270083490       17.1098074021       12.4978194866
  C        11.8827457524       14.0864071345       10.2855489682
  C        12.4718321179       12.9104606360       10.9896887081
  C        11.7143326070       12.1775268418       11.9160315870
  C        12.2807764784       11.0949749964       12.5844074936
  C        13.6194611306       10.7208841741       12.3523493128
  C        14.3573917291       11.4361589399       11.3912930377
  C        13.7921155749       12.5174334506       10.7186499695
  C        14.2529855635        9.6240874072       13.1227560018
  C        14.2519143381        9.6441584957       14.5445965776
  C        13.7423542655       10.7532504424       15.2916698141
  C        22.5061391900        3.2436453324        5.7474326537
  C        23.2084027666        4.3479047889        5.0338445894
  C        24.2036158811        4.0664157789        4.0863289841
  C        24.8245538638        5.1044134573        3.3964498076
  C        24.4653968169        6.4460840418        3.6335780819
  C        23.4942810759        6.7191201701        4.6142109763
  C        22.8694448411        5.6829874129        5.3031393238
  C        25.0760830409        7.5521209621        2.8614298935
  C        25.0703553614        7.5437143621        1.4398161364
  C        24.3790929435        6.5442781778        0.6841792120
  C        38.2978647590       31.9279877164        5.8515337215
  C        37.5560295828       30.8403365303        5.1494946353
  C        36.5909841023       31.1490820741        4.1781435353
  C        35.9594107438       30.1326340944        3.4665836344
  C        36.2772291984       28.7805761811        3.7025592150
  C        37.2117158606       28.4793135294        4.7115939114
  C        37.8472682157       29.4947437286        5.4227493507
  C        35.6651427296       27.6933903706        2.9035395433
  C        35.7041443212       27.7078491537        1.4817448839
  C        36.4168694036       28.7081986465        0.7482177072
  C        25.7060020010        8.6120791486        0.7287229869
  C        25.6640349350        8.6271625435        3.5401900559
  C        38.3296860384       31.9603899515       10.1600949570
  C        37.6119381707       30.8876433379       10.9086022186
  C        36.6783119138       31.1974385034       11.9098622693
  C        36.0672637310       30.1808012081       12.6419874881
  C        36.3744629974       28.8268778868       12.3980191605
  C        37.2887315696       28.5270907361       11.3691008596
  C        37.9014684449       29.5402180290       10.6377781012
  C        35.7589449305       27.7288507220       13.1803148169
  C        35.7519748038       27.7259247389       14.6030817376
  C        36.4381593990       28.7179970183       15.3715701739
  C        46.1354212874       26.6208023382       15.2814190070
  C        46.0878495154       26.5802832945       12.4735293580
  C        22.4691001069        3.2564258007       10.2533409021
  C        23.1822190227        4.3634592509       10.9630367788
  C        24.1924351234        4.0728210239       11.8941095861
  C        24.8362380053        5.1000140610       12.5806008551
  C        24.4908341024        6.4484613462       12.3598212086
  C        23.5057136914        6.7324200383       11.3951354007
  C        22.8576687159        5.7053914058       10.7083598487
  C        25.1263843262        7.5426060837       13.1385453303
  C        25.0974534189        7.5376791093       14.5613309512
  C        24.3891056539        6.5432414811       15.3075468211
  C        26.5568654087       17.8221791316        5.7885864709
  C        25.2559750045       17.8785070840        5.0630118189
  C        25.0110599975       18.8761074092        4.1069483912
  C        23.8034613436       18.9025759213        3.4142293615
  C        22.8089811999       17.9343010465        3.6569154585
  C        23.0492056653       16.9604149057        4.6439998631
  C        24.2583561279       16.9290046558        5.3349629093
  C        21.5439647023       17.9252145545        2.8849711006
  C        21.5533687438       17.9119560334        1.4632017822
  C        22.7633044960       17.7865792126        0.7101017916
  C        34.4122725925       17.2224098230        5.8813298300
  C        35.7153397036       17.1573618005        5.1552015526
  C        35.9206126867       16.1800059342        4.1688020983
  C        37.1075081023       16.1509562314        3.4425862470
  C        38.1197243773       17.1018751345        3.6772737266
  C        37.9178444866       18.0589378206        4.6901656332
  C        36.7299998795       18.0899084165        5.4181817526
  C        39.3733206489       17.1023723233        2.8884649798
  C        39.3651231321       17.0997537604        1.4659144834
  C        38.1552669840       17.2071900608        0.7099561136
  C        20.3108949033       17.9389548665        0.7491203823
  C        20.3174139280       17.9249480705        3.5616415088
  C        34.4375121830       17.2455115756       10.1813639419
  C        35.7359749483       17.1428980618       10.9072594540
  C        35.9643983319       16.1308513594       11.8527196261
  C        37.1526866334       16.1016608790       12.5791066427
  C        38.1466528750       17.0786253073       12.3747850035
  C        37.9271379067       18.0630568823       11.3928302497
  C        36.7362600807       18.1004807530       10.6735100668
  C        39.3978554667       17.0873898364       13.1668083108
  C        39.3774795619       17.0890534260       14.5881415967
  C        38.1610927600       17.1982679612       15.3330381573
  C        35.1124166519       26.6491844771       15.3037490904
  C        35.1758794641       26.6557653109       12.4939423511
  C        26.5707399175       17.8273649040       10.3269091399
  C        25.2566650488       17.8786558543       11.0307032621
  C        24.9974563507       18.8820952329       11.9765056024
  C        23.7794778262       18.9112806110       12.6493296478
  C        22.7921383348       17.9379483261       12.3978197120
  C        23.0455115655       16.9603074243       11.4189196674
  C        24.2644957996       16.9281547695       10.7454181148
  C        21.5266182514       17.9234395128       13.1656598747
  C        21.5439454762       17.9100913920       14.5867692772
  C        22.7582335659       17.7857439016       15.3337809965
  C        14.0462252438       17.8324333127       10.2838276981
  C        15.3532563079       17.8981587142       10.9999560415
  C        15.6126812009       18.9125066389       11.9344879788
  C        16.8236466857       18.9398563662       12.6225574905
  C        17.8065858774       17.9554260897       12.3973651868
  C        17.5532416371       16.9669255100       11.4281828712
  C        16.3419388978       16.9352942217       10.7412372854
  C        19.0722551448       17.9388388901       13.1690809181
  C        19.0627200353       17.9331639974       14.5908068354
  C        17.8506934726       17.8372609316       15.3443984721
  C        46.8018681025       17.2165148263       10.1567170003
  C        45.5075412203       17.1468295032       10.8968141304
  C        45.2992567454       16.1598906292       11.8728658970
  C        44.1146794601       16.1321601949       12.6044146226
  C        43.1070328982       17.0914770592       12.3832808917
  C        43.3120763949       18.0576574430       11.3796109034
  C        44.4974690880       18.0889017882       10.6484440860
  C        41.8534063188       17.0942084102       13.1732576414
  C        41.8618125914       17.0893613414       14.5958057046
  C        43.0723629713       17.1868957088       15.3519091132
  C        20.3055549601       17.9371955400       15.3049682197
  C        20.2985772501       17.9169749904       12.4924804665
  C        46.7842373673       17.2324638848        5.8861886366
  C        45.4824545903       17.1271628522        5.1655783697
  C        45.2644431091       16.1244496645        4.2083104093
  C        44.0772269616       16.0938328782        3.4803330014
  C        43.0772801956       17.0632172177        3.6913620969
  C        43.2867269212       18.0376843341        4.6852996702
  C        44.4749022469       18.0741805316        5.4089085586
  C        41.8288264680       17.0777118318        2.8959851047
  C        41.8494302491       17.0801362728        1.4744632234
  C        43.0663197624       17.1797037643        0.7289536619
  C        46.1531298916       26.6371923080        0.7261760338
  C        46.1620269823       26.6560002527        3.5358160672
  C        14.0395394989       17.8284102638        5.7063968300
  C        15.3528455872       17.8974179935        5.0061107416
  C        15.6219836488       18.9187507193        4.0831829259
  C        16.8456110967       18.9554412670        3.4198936807
  C        17.8241483643       17.9696293317        3.6554753235
  C        17.5607291696       16.9745349514        4.6137990788
  C        16.3394169233       16.9375625347        5.2810014700
  C        19.0900193540       17.9495822464        2.8882401765
  C        19.0721400877       17.9378284445        1.4672888077
  C        17.8553713223       17.8391991413        0.7206921280
  C        28.8392148880       14.1244220177       10.4039017619
  C        28.2518869905       12.9409644818       11.0970737337
  C        28.9792500857       12.2017096795       12.0419239855
  C        28.3891276985       11.1141736768       12.6838836396
  C        27.0588257377       10.7392653323       12.4039980696
  C        26.3549322834       11.4590472625       11.4218846982
  C        26.9407018756       12.5463095104       10.7808319605
  C        26.3883139825        9.6513631623       13.1544426328
  C        26.3513911820        9.6797774278       14.5748636062
  C        26.8399777907       10.7950245342       15.3268076543
  C        32.1802741508       21.2404250696       10.1365154898
  C        32.7756258082       22.4060340648       10.8551502366
  C        32.0261457383       23.0799739999       11.8324302064
  C        32.5938062576       24.1183187513       12.5644486983
  C        33.9280103032       24.5121965048       12.3431370358
  C        34.6596788143       23.8573542552       11.3337117395
  C        34.0941936220       22.8139119028       10.6021558356
  C        34.5520884348       25.5876788401       13.1491136625
  C        34.5277379846       25.5636386174       14.5716596413
  C        34.0107766085       24.4514503688       15.3085770552
  C        25.7262755376        8.6042877880       15.2842783211
  C        25.7581785773        8.6015060411       12.4717214636
  C        32.0686509773       21.2046059815        5.8745420144
  C        32.6396491191       22.3709416339        5.1388803866
  C        31.9079178741       23.0114604407        4.1269487834
  C        32.4792671429       24.0521625916        3.3967478581
  C        33.7964246749       24.4809311233        3.6564422204
  C        34.5083257110       23.8539097897        4.6976188156
  C        33.9422337971       22.8104199340        5.4245592396
  C        34.4380840330       25.5640182641        2.8736844864
  C        34.4682894108       25.5523650648        1.4509464799
  C        33.9809503912       24.4464878602        0.6853926077
  C        40.6100154351       17.0721087652        0.7538410609
  C        40.5992799210       17.1073296516        3.5639602244
  C        28.7291654269       14.0627675132        5.7860301911
  C        28.1135015001       12.9140924378        5.0605641262
  C        28.8510797148       12.2004691544        4.1032036361
  C        28.2663391787       11.1441498791        3.4105917380
  C        26.9274418614       10.7750055893        3.6488602365
  C        26.2070457809       11.4732009228        4.6359277147
  C        26.7907099537       12.5303727081        5.3317003276
  C        26.2864377478        9.6882370770        2.8710622916
  C        26.2980662084        9.7005011599        1.4493977813
  C        26.8114977797       10.8068528287        0.7023118587
  C        18.1353215343        3.1808349410       10.3171217073
  C        17.4056855686        4.2780058311       11.0155372500
  C        16.3899268411        3.9994331970       11.9429547961
  C        15.7419944923        5.0392735956       12.6064762357
  C        16.0937089446        6.3830614231       12.3668920713
  C        17.0830392491        6.6527958045       11.4031304120
  C        17.7323484699        5.6155934031       10.7380578099
  C        15.4693005561        7.4906731348       13.1300111858
  C        15.4846889411        7.4900278159       14.5517314147
  C        16.1862204000        6.4963824786       15.3048826251
  C        42.9457377286       31.8595156854       10.0727978221
  C        43.6461052832       30.7718427728       10.8167711181
  C        44.5916355580       31.0931846073       11.8028282898
  C        45.1973386931       30.0876508676       12.5505047464
  C        44.8708977313       28.7345961950       12.3356454376
  C        43.9450485096       28.4202381356       11.3224676373
  C        43.3362246141       29.4253700696       10.5744181653
  C        45.4885238304       27.6553165873       13.1388236658
  C        45.4926430508       27.6808994582       14.5605169771
  C        44.8054491421       28.6888813694       15.3071307366
  C        14.8559075421        8.5626187308       15.2641197570
  C        14.8740214300        8.5624592512       12.4514506964
  C        42.9463135491       31.9614940117        5.8090134931
  C        43.6914215527       30.8853411611        5.0954292015
  C        44.6563024553       31.1912295435        4.1234108871
  C        45.2777633568       30.1716390493        3.4056373385
  C        44.9536373170       28.8213601783        3.6429880069
  C        44.0197712215       28.5236970479        4.6533978197
  C        43.3915606145       29.5404737745        5.3656107810
  C        45.5627215093       27.7239706163        2.8577500913
  C        45.5330746766       27.7173009994        1.4364582003
  C        44.8266944449       28.7074990737        0.6835242375
  C        35.0848742022       26.6418978748        0.7495777559
  C        35.0487989115       26.6218949885        3.5599845871
  C        18.1486228363        3.2468378438        5.7067563214
  C        17.4300551690        4.3437072871        4.9973689135
  C        16.4147631656        4.0524061275        4.0739038410
  C        15.7664254568        5.0830070842        3.3984745145
  C        16.1211299343        6.4282569041        3.6210378090
  C        17.1126013345        6.7116794474        4.5781962629
  C        17.7602611918        5.6827951902        5.2580315918
  C        15.4905504049        7.5239214927        2.8485845312
  C        15.4961618313        7.5071645839        1.4274404013
  C        16.1926632550        6.5053134747        0.6806983727
  H        10.6725002814       12.4657957508        3.9043948568
  H        11.6947682762       10.5509743920        2.6625497128
  H        15.3917248518       11.1685934515        4.7721915905
  H        14.3512085695       13.0712884644        6.0174465274
  H        13.3764015319       11.6311419869        1.2012187331
  H        50.3224436186       22.7483784081        3.9867879917
  H        49.3192620586       24.6227207392        2.6806767057
  H        45.6419587690       24.1614123586        4.8639359142
  H        46.6629235413       22.2905952868        6.1723355159
  H        47.6297131590       23.5758962934        1.2460915242
  H        14.8723763917        8.5882738732        4.6084837665
  H        50.2867525531       22.7021418324       12.0607555799
  H        49.2688896951       24.5750513401       13.3607762729
  H        45.6108885694       24.1102090689       11.1451166803
  H        46.6529369913       22.2548884681        9.8307816046
  H        47.6077962312       23.5519102035       14.7967937252
  H        40.6302372422       17.0865474183       11.4096711167
  H        48.6871720194       14.0951610977        7.8000307588
  H        10.6809722468       12.4668705154       12.0936174560
  H        11.6890041211       10.5247749727       13.2972740127
  H        15.3927367404       11.1580530060       11.2052061188
  H        14.3645046399       13.0866208169        9.9900169301
  H        13.3756842372       11.6219305369       14.7530338487
  H        47.9300749709       14.2188379059        9.7107506928
  H        47.7800152103       14.3744338695        6.4955643931
  H        49.0827086265       18.5520943968       10.8671588183
  H        10.4159769960       14.1343308363        7.9988859753
  H        24.4698486935        3.0278855744        3.9026571216
  H        25.5989698555        4.8859372332        2.6643614656
  H        23.2084077644        7.7519238774        4.8023714755
  H        22.0994378551        5.8842192770        6.0439091064
  H        23.8086798505        5.7888291859        1.2168454655
  H        36.3605291767       32.1936301502        3.9823901727
  H        35.2119195498       30.3774395508        2.7151291251
  H        37.4652477440       27.4385844330        4.9026888498
  H        38.5939780102       29.2678505543        6.1801157465
  H        36.9784505407       29.4583056360        1.2973508215
  H        25.6845365991        8.6098645908        4.6283610004
  H        36.4506031844       32.2417793191       12.1112739463
  H        35.3368058096       30.4287552655       13.4089438097
  H        37.5401304477       27.4867928980       11.1732191602
  H        38.6277413414       29.3113930399        9.8616096159
  H        37.0168435901       29.4753008938       14.8504969037
  H        46.1092986711       26.5877592180       11.3854947023
  H        44.6680620933       35.1160252445        7.8140847749
  H        24.4626538651        3.0328525439       12.0629622649
  H        25.6205171698        4.8659714539       13.2974054019
  H        23.2265618093        7.7685012766       11.2144196781
  H        22.0807768120        5.9235164901        9.9791215669
  H        23.8259163156        5.7875200511       14.7678198936
  H        44.9530497516       34.3896774225        9.6947300174
  H        44.9011691210       34.2066684157        6.4906094198
  H        40.6655147758       33.2086846583       10.8530233278
  H        23.1506701978        1.9576716887        8.0029859327
  H        25.7772211799       19.6254000280        3.9219549708
  H        23.6151318292       19.6809136158        2.6779573946
  H        22.2900818346       16.2053305652        4.8375128384
  H        24.4589973629       16.1642434222        6.0815077553
  H        23.7009110698       17.6580773672        1.2434430079
  H        35.1299992248       15.4584174525        3.9773951590
  H        37.2646968168       15.3845663382        2.6868162229
  H        38.6904061571       18.8022791937        4.8759219233
  H        36.5583834468       18.8444702148        6.1824243448
  H        37.2158473819       17.3301234892        1.2414672326
  H        20.3188609619       17.9579502349        4.6496646843
  H        35.1998195485       15.3740017680       12.0126025536
  H        37.3255273761       15.3154860433       13.3109007608
  H        38.6879152522       18.8233862969       11.2285823551
  H        36.5473340461       18.8785070423        9.9377034349
  H        37.2258352847       17.3128187847       14.7926055119
  H        35.1600558615       26.6791739283       11.4059254121
  H        28.4983299772       21.0738387150        7.8755454909
  H        25.7622894303       19.6321759056       12.1646625436
  H        23.5771744427       19.6928211438       13.3785015370
  H        22.2901034111       16.2029791988       11.2196322257
  H        24.4769351435       16.1619830272       10.0037172242
  H        23.6919996332       17.6572015989       14.7945850518
  H        29.0121545597       21.7173269842        9.7367144980
  H        29.2068602948       21.6922940559        6.5571131334
  H        32.1261957941       18.6748139061       10.9090902652
  H        27.3650383713       19.0104053255        8.0841010953
  H        14.8544263556       19.6730389595       12.1067199810
  H        17.0228553537       19.7304751346       13.3428025918
  H        18.3038531669       16.2004458689       11.2465780998
  H        16.1320467678       16.1591778936       10.0091451537
  H        16.9106439687       17.7293158156       14.8113331211
  H        46.0832438736       15.4279142741       12.0522636138
  H        43.9557825667       15.3591845033       13.3531670709
  H        42.5433214415       18.8072172492       11.2033604030
  H        44.6707377416       18.8497028634        9.8908569404
  H        44.0127538871       17.3007838157       14.8203209784
  H        20.2977804030       17.9482439434       11.4043907613
  H        46.0408595117       15.3823609498        4.0367343903
  H        43.9117451231       15.3142086179        2.7399025878
  H        42.5208935889       18.7916883620        4.8550020533
  H        44.6561197042       18.8450091677        6.1539960659
  H        44.0024163339       17.2870175407        1.2694104624
  H        46.1987700761       26.6825383369        4.6232645183
  H        52.7413170507       21.0627192654        8.1946262130
  H        14.8631079117       19.6772166648        3.9045038798
  H        17.0574821847       19.7505789915        2.7083437673
  H        18.3098953772       16.2077467524        4.7997649281
  H        16.1182186048       16.1588706419        6.0068281815
  H        16.9187673922       17.7325960143        1.2597777870
  H        52.3227758484       21.6737918621        6.2945996795
  H        52.0138473336       21.7028120598        9.4955334027
  H        49.0677577793       18.6080592168        5.2041057711
  H        13.2473201643       19.0163204534        7.9760073342
  H        30.0053909887       12.4905787474       12.2587352653
  H        28.9549788283       10.5419556583       13.4159571233
  H        25.3270152767       11.1817351444       11.1975306687
  H        26.3915601828       13.1213432788       10.0397560103
  H        27.2104136556       11.6640317050       14.7915521494
  H        31.0021454437       22.7633012807       12.0147638678
  H        32.0055865114       24.6383955990       13.3172961606
  H        35.6920173358       24.1511725589       11.1549397836
  H        34.6665058810       22.2854693905        9.8430804552
  H        33.6619109714       23.5795769825       14.7626308217
  H        25.8018853141        8.5828392181       11.3841002591
  H        30.8976634077       22.6686797115        3.9140747162
  H        31.9039388373       24.5477256708        2.6177911612
  H        35.5279475405       24.1715125807        4.9056848290
  H        34.5010253563       22.3050478749        6.2085748913
  H        33.6093504900       23.5705611230        1.2097568247
  H        40.5953357711       17.0812040634        4.6519918898
  H        32.5106928713       14.1586079076        8.1210674794
  H        29.8848690946       12.4840226038        3.9207085898
  H        28.8451764152       10.5874133980        2.6769091233
  H        25.1711211821       11.2003678802        4.8266125636
  H        26.2308134110       13.0870884276        6.0794585721
  H        27.1586213666       11.6850436623        1.2391506768
  H        33.3006936012       14.2561574149        6.3767476084
  H        33.4109474292       14.3475054505        9.5200655351
  H        32.0037173957       18.4997739355        5.0572263152
  H        30.2045210854       14.1427383959        8.0844769791
  H        16.1180253489        2.9628750771       12.1292985729
  H        14.9525318893        4.8196990453       13.3220650988
  H        17.3652846002        7.6857312679       11.2100630650
  H        18.5143781885        5.8184109161       10.0102486950
  H        16.7525686496        5.7389067026       14.7713560617
  H        44.8278780129       32.1402747601       11.9770048455
  H        45.9371852091       30.3413916371       13.3064707633
  H        43.6822949429       27.3781766526       11.1524029342
  H        42.5995700496       29.1900347852        9.8097854958
  H        44.2300015363       29.4365724138       14.7688180393
  H        14.8501949252        8.5456684749       11.3632326641
  H        44.9000830700       32.2338975868        3.9322036969
  H        46.0248706918       30.4128154459        2.6525841543
  H        43.7624079520       27.4840038919        4.8446181048
  H        42.6447047699       29.3176972123        6.1237136888
  H        44.2680792273       29.4702971672        1.2181277265
  H        34.9997602457       26.6354218876        4.6471947194
  H        36.6051582284       35.1340330989        8.1805741123
  H        16.1436095002        3.0128254746        3.9042995127
  H        14.9740014055        4.8560930592        2.6885204891
  H        17.3961329657        7.7471554309        4.7550035440
  H        18.5430897632        5.8932911270        5.9828319966
  H        16.7640643452        5.7550218178        1.2190988390
  H        36.2789792237       34.4820722714        6.2734980230
  H        36.3804999291       34.2091918072        9.4996504264
  H        40.5786795864       33.2018285096        5.1544152543
  H        17.4712282426        1.9472651289        7.9741634359
  H        29.1136457691       19.5465354935       12.5283086997
  H        28.7557495975       18.9488112279        3.7478377051
  H        30.7628707748       15.4800419567        3.6654504231
  H        31.2631157697       15.8290589008       13.0833885226
  H        28.1074853132       17.9790539170       14.4284935908
  H        29.6916716729       15.6280151709       14.5159284842
  H        18.8532174281        0.8689940417       12.3351384402
  H        40.5281298150       35.2291008295        3.9521684958
  H        42.3230492308       34.4179400128        3.5911933579
  H        22.0876615978        0.6920869618       12.3516189572
  H        11.5967100731       18.7127294397       12.3826725494
  H        52.2649222079       18.4316437170        3.6775327213
  H        49.2555140139       16.4765206852        3.5841596334
  H        10.1504065259       15.7983537048       12.2925567453
  H        50.8502654426       17.6926279624        3.9540097522
  H        10.0460827010       17.3948262672       12.0518936969
  H        20.2143021806        0.0021630701       12.0420891560
  H        39.1834816112       36.1241628397        3.6861133128
 Ni        30.2626664647       17.4833715255        2.5843599486
 Ni        30.6512295813       16.5175001351        0.4956670720
 Ni        29.3799249936       18.2796837944        0.4152131408
 Ni        30.1439859486       17.6452613271       13.3255826264
  O        10.6499387677       14.3651364462        5.4858220094
  O        12.6130960801       14.6574031277        6.5839165359
  O        49.1476043589       16.8459327939        7.9897688792
  O        50.3500937511       20.9362218411        5.6482116895
  O        48.3484660889       20.5932490386        6.6659603140
  O        11.0510389765       17.0540046473        6.5007295455
  O        50.3208034811       20.8816849156       10.4068841301
  O        48.3466455389       20.5866682284        9.3270901712
  O        49.5433554120       18.2483932070       10.0683114643
  O        12.3588178134       18.6247325758        7.9997321226
  O        48.6931423016       14.1486491076        6.7512816091
  O         8.2098247293       14.2104981409        9.3225720666
  O        10.7350832145       14.5067368143       10.6643027811
  O        12.5716758691       14.5826945068        9.3286195074
  O        22.8442423556        2.0428861310        5.4869602194
  O        21.6052126108        3.5922675221        6.5895465809
  O        42.0578641077       34.1371533219        7.9791775182
  O        37.9813738256       33.1370305909        5.5725343509
  O        39.2171633378       31.5751993196        6.6656104909
  O        20.3084883345        1.0400245175        6.5021327590
  O        38.0243564905       33.1848682554       10.4156861096
  O        39.2183152225       31.5829634670        9.3275135362
  O        40.6521110295       33.7691336804       10.0602193692
  O        18.2560446870        1.3762653463        7.9968526066
  O        44.6221614513       35.1005711887        6.7588066163
  O        24.2054047338       -0.0000156094        9.3208132408
  O        22.7535832068        2.0577323224       10.5840516804
  O        21.6260052753        3.5973933523        9.3448488960
  O        27.4486040660       18.6921979501        5.4924959883
  O        26.6912415748       16.9110872005        6.6716870998
  O        30.6331469478       19.3465733795        8.0189378768
  O        33.5378796404       16.3401661003        5.5840100037
  O        34.2644731975       18.1694671135        6.7332489326
  O        29.5339832589       17.0065982493        6.5750302458
  O        33.5429132155       16.3422904314       10.4269039333
  O        34.2904668189       18.2322429968        9.3977853421
  O        31.6443361481       18.3053201510       10.1525453010
  O        30.2961673392       15.1091557042        8.0671531674
  O        28.5475504163       21.0273319488        6.8301371261
  O        28.5143400454       20.9506400225        9.4051637712
  O        27.4590119402       18.6783582846       10.6587181841
  O        26.6923851452       16.9259739091        9.4181368088
  O        13.1470254702       18.6936985579       10.5863081959
  O        13.9182375697       16.9160565360        9.4042045314
  O        50.5958109097       19.3502797256        8.0208085359
  O        47.6819081074       16.3272572419       10.4173842229
  O        46.9501315591       18.1757988950        9.3254099675
  O        11.0690647684       17.0158849414        9.4896257042
  O        47.6746571237       16.3359625530        5.6526932101
  O        46.9250996206       18.2360238525        6.6632450138
  O        49.5687771629       18.3177847501        5.9823213345
  O        10.3186207436       15.1001794012        7.9971726262
  O        52.6707287690       21.0279907220        9.2418077295
  O        12.1468078616       20.8914242766        6.6733745427
  O        13.1045261202       18.6142806792        5.3263782001
  O        13.9549719867       16.9864278234        6.6656006521
  O        30.0219102513       14.5134816951       10.7328860931
  O        28.0987192026       14.6526115294        9.5034189898
  O        32.0694749512       16.8536934178        8.0053928127
  O        30.9664117216       20.9510839463       10.4017789826
  O        32.9467880457       20.5934007758        9.3322275510
  O        29.5699065440       17.0678455090        9.5760257480
  O        30.8486862275       20.8885052286        5.6592326907
  O        32.8677742780       20.5835894815        6.6616700103
  O        31.6080039050       18.2461630283        5.9091152858
  O        28.2565666903       18.6258071208        8.0692198575
  O        32.4904577895       14.2132332935        9.2333529854
  O        32.4016470553       14.2214647174        6.7450438233
  O        29.8997441237       14.4341105711        5.4194000256
  O        28.0448761831       14.5796803604        6.7381084785
  O        17.8892346013        1.9665515161       10.6627940044
  O        18.9563342479        3.5271650751        9.4080645461
  O        39.1685428269       34.1386352706        7.9971763780
  O        43.2801759405       33.0589406146       10.3316816691
  O        42.0343823440       31.5064620744        9.2415920574
  O        20.3175230851        1.0364709449        9.4802610924
  O        43.2760527379       33.1824780289        5.5749232930
  O        42.0051842923       31.5840822819        6.5830396892
  O        40.5790674255       33.7750922309        5.9361318803
  O        22.3672961743        1.3847904766        7.9981384932
  O        36.6728126078       35.0997105106        9.2332813704
  O        16.4456742029        0.0642571417        6.6683236705
  O        17.9364276564        2.0432665310        5.3264628767
  O        18.9191344772        3.5931009514        6.6660116102
  O        29.6601348575       18.8347625046        4.0894044565
  O        29.7945522291       19.0327722495       12.0560009871
  O        31.1017362388       16.3325256148        3.9972011304
  O        31.5158673046       16.3506225957       12.2349391387
  O        30.5418027421       16.1095921096       14.5066555176
  O        28.9384894965       18.4690750089       14.5740732166
  O        39.4568518657       35.2437464888        4.0020121755
  O        19.1411945205        0.0044990772       11.9905494288
  O        41.9695669439       35.1726525929        4.0872090367
  O        21.6913689761       -0.0693636006       11.8959451376
  O        51.3648993918       18.6144300187        4.0052861692
  O        10.7509494480       18.7471536414       11.9050641153
  O        50.0797735207       16.4127209989        4.0917475257
  O         9.5244064132       16.4831564134       11.9911662555
 Zr         9.2971750953       16.0528983257        6.1822940277
 Zr        49.8366038669       16.0070244793        9.7465533135
 Zr        22.0728777262        0.0294067267        6.1894261275
 Zr        42.4606359286       35.1533399848        9.8011040629
 Zr        29.5460232759       19.0458476659        6.2075670232
 Zr        29.5631379685       19.1785128683        9.8576170263
 Zr        11.0379474433       19.0523896181        9.8279631794
 Zr        11.0437716636       19.1551932168        6.2511254724
 Zr        31.3499849354       16.0911004721        9.7487647632
 Zr        31.3314634318       16.0163219933        6.1580479769
 Zr        18.6007143194       -0.0021515895        9.7634609844
 Zr        18.5064725896       -0.0079070674        6.2135434523
 Zr        12.3016652563       16.3233841913        7.9906675658
 Zr        48.6165147158       18.8331222906        8.0102310523
 Zr        20.3154072564        2.4734460404        7.9915463575
 Zr        40.6424952611       32.6863266128        7.9781291473
 Zr        28.3183743746       16.3273890198        8.0757760259
 Zr        32.5873486875       18.8550210688        8.0048189788
  H        28.9257672500       17.7409958294        1.8086501255
  H        32.4549307392       16.6048587336       12.3403123962
