     569
 i =      128, E =     -4729.4985832971
  C        11.8587955131       14.0534233465        5.7415596763
  C        12.4562689517       12.8905221881        5.0232391248
  C        11.7046136675       12.1716240103        4.0815229896
  C        12.2809893427       11.1094011703        3.3892085415
  C        13.6215425065       10.7395410170        3.6169964363
  C        14.3546849182       11.4431116868        4.5904861972
  C        13.7817956462       12.5080960530        5.2819775247
  C        14.2610151404        9.6488247685        2.8436262354
  C        14.2562511197        9.6567177743        1.4219283344
  C        13.7432229716       10.7589107614        0.6680316976
  C        49.1266725479       21.2333729112        5.8797861984
  C        48.5498294211       22.4012461445        5.1527049144
  C        49.2997672512       23.0683956738        4.1715185325
  C        48.7328039506       24.1074758818        3.4382677794
  C        47.4023209447       24.5092421173        3.6670079403
  C        46.6714870974       23.8605779469        4.6807555023
  C        47.2339730456       22.8157426617        5.4101717080
  C        46.7720490681       25.5868882768        2.8697110998
  C        46.7610989616       25.5573059293        1.4479478016
  C        47.2611498711       24.4422884288        0.7044205015
  C        14.8600515308        8.5703037840        0.7086639821
  C        14.8917447064        8.5968465532        3.5202764066
  C        49.1131264269       21.2035434130       10.1454119123
  C        48.5278316858       22.3650113721       10.8723950584
  C        49.2669659851       23.0254750403       11.8655560955
  C        48.6906777650       24.0600667320       12.5969897505
  C        47.3603942380       24.4571409867       12.3584992094
  C        46.6401554530       23.8125845833       11.3346197146
  C        47.2136643234       22.7766542998       10.6028443399
  C        46.7218638112       25.5320084882       13.1495783731
  C        46.7334878225       25.5282595328       14.5712860866
  C        47.2489631259       24.4290578577       15.3276585591
  C        40.6201793863       17.0822930334       15.2922614683
  C        40.6140397522       17.0778549847       12.4822237850
  C        11.8829744446       14.0864032730       10.2855645737
  C        12.4721637016       12.9105638744       10.9897483528
  C        11.7146867421       12.1775140756       11.9160201970
  C        12.2812300203       11.0950284409       12.5844144898
  C        13.6199844577       10.7211163503       12.3524501839
  C        14.3578956912       11.4365181553       11.3914722711
  C        13.7925177122       12.5177154870       10.7187925901
  C        14.2535526729        9.6243436788       13.1228585607
  C        14.2523117291        9.6443333889       14.5446997450
  C        13.7426252446       10.7533646731       15.2917783658
  C        22.5125973334        3.2457906039        5.7517309554
  C        23.2277358639        4.3508041531        5.0500388398
  C        24.2238351304        4.0690746778        4.1031461765
  C        24.8528287890        5.1068751175        3.4197797715
  C        24.5022630526        6.4502329707        3.6618496849
  C        23.5337508619        6.7234257074        4.6453563681
  C        22.9002428602        5.6873161678        5.3274586565
  C        25.1126877658        7.5548734937        2.8853545995
  C        25.0927087384        7.5447261957        1.4632062251
  C        24.3906106696        6.5462810492        0.7159204092
  C        38.2989992696       31.9260373087        5.8482801836
  C        37.5606176452       30.8370767659        5.1410396613
  C        36.5975077997       31.1444383029        4.1669851207
  C        35.9679327375       30.1278195590        3.4528301918
  C        36.2841384366       28.7749508263        3.6882578295
  C        37.2179784600       28.4751235748        4.6986966103
  C        37.8518042480       29.4907866524        5.4121721346
  C        35.6700259910       27.6869578921        2.8891558702
  C        35.7066930985       27.7009709805        1.4667797902
  C        36.4204307273       28.6996694956        0.7320924221
  C        25.7224058115        8.6110802294        0.7429927521
  C        25.7080498137        8.6317034988        3.5553478057
  C        38.3281675814       31.9609455618       10.1579224257
  C        37.6056033914       30.8880615453       10.9016193866
  C        36.6740165631       31.1978467330       11.9046813836
  C        36.0596335879       30.1807968800       12.6333250342
  C        36.3612878446       28.8267527692       12.3835490475
  C        37.2721041092       28.5270236730       11.3516062859
  C        37.8886756429       29.5406475181       10.6241901868
  C        35.7446933039       27.7288818426       13.1650357322
  C        35.7444848637       27.7228200977       14.5877062884
  C        36.4375066306       28.7108457134       15.3552642091
  C        46.1353289468       26.6207980827       15.2814488845
  C        46.0878395516       26.5803517978       12.4735587381
  C        22.4634254858        3.2558572139       10.2568170643
  C        23.1640375591        4.3627740197       10.9768903306
  C        24.1701152220        4.0727055390       11.9123707658
  C        24.8054687453        5.1000146282       12.6059276879
  C        24.4552979038        6.4473826021       12.3868732084
  C        23.4720816441        6.7307523817       11.4199515641
  C        22.8321276561        5.7036234803       10.7266863473
  C        25.0925448039        7.5425961845       13.1606159785
  C        25.0833911222        7.5375889679       14.5833949848
  C        24.3841288978        6.5441242421       15.3390199525
  C        26.5778472721       17.7880775532        5.7489340741
  C        25.2720438486       17.8605259521        5.0367553332
  C        25.0318583325       18.8511604171        4.0719934200
  C        23.8176477875       18.8857189080        3.3912355517
  C        22.8138768550       17.9309522040        3.6506407894
  C        23.0494812834       16.9668144594        4.6487539840
  C        24.2630371593       16.9290312084        5.3309556431
  C        21.5472516985       17.9217409024        2.8813215449
  C        21.5563641768       17.9023197383        1.4593821192
  C        22.7653874410       17.7684366449        0.7061877857
  C        34.4765448527       17.2599542527        5.9289873160
  C        35.7687155679       17.2061242571        5.1847306800
  C        35.9717628319       16.2173928693        4.2089161413
  C        37.1462888839       16.1961011974        3.4632080631
  C        38.1498147436       17.1614081579        3.6733811473
  C        37.9502910336       18.1310569893        4.6745479554
  C        36.7720372106       18.1584470796        5.4178576843
  C        39.3974196322       17.1558589010        2.8765534609
  C        39.3810493985       17.1397667280        1.4551195516
  C        38.1673309427       17.2461811235        0.7061064497
  C        20.3137411549       17.9307256404        0.7456577562
  C        20.3204539841       17.9246266145        3.5582424091
  C        34.3845977497       17.2177013878       10.2550856936
  C        35.6960197496       17.1119052883       10.9568935096
  C        35.9187369781       16.1301471386       11.9345018582
  C        37.1221533556       16.0970000936       12.6344868441
  C        38.1314173360       17.0458983051       12.3783710890
  C        37.9165135730       17.9972439623       11.3636063110
  C        36.7139565078       18.0335917805       10.6644904729
  C        39.3885308232       17.0664660226       13.1583695602
  C        39.3768610694       17.0939943931       14.5794758563
  C        38.1653765064       17.2220375325       15.3297036852
  C        35.1042484710       26.6469199089       15.2886052109
  C        35.1551340885       26.6591994774       12.4788051825
  C        26.5754585589       17.8276621345       10.3193647741
  C        25.2644311667       17.8686984330       11.0315535769
  C        25.0064709456       18.8673646269       11.9828532211
  C        23.7876434007       18.8949903743       12.6548831166
  C        22.7983806598       17.9249936442       12.3972097058
  C        23.0524543748       16.9499630841       11.4159037023
  C        24.2722159361       16.9192408808       10.7434007703
  C        21.5308574652       17.9112957680       13.1623724782
  C        21.5468148633       17.8957786787       14.5833382242
  C        22.7602360069       17.7651182153       15.3301337459
  C        14.0469789493       17.8324782321       10.2835646963
  C        15.3549073692       17.8977904308       10.9985181562
  C        15.6167318990       18.9122629295       11.9322676762
  C        16.8285939568       18.9384608294       12.6190633054
  C        17.8101956513       17.9526704821       12.3935801773
  C        17.5545586095       16.9642771310       11.4248447095
  C        16.3424834657       16.9338661072       10.7391600125
  C        19.0761723176       17.9333828312       13.1651678635
  C        19.0660581115       17.9269493342       14.5869668405
  C        17.8538077696       17.8338512332       15.3405658306
  C        46.8000504626       17.2125352772       10.1513127394
  C        45.5000894633       17.1336257888       10.8801246241
  C        45.2914271681       16.1447135025       11.8539408841
  C        44.1040738262       16.1122091796       12.5805633640
  C        43.0944651122       17.0683819632       12.3559404933
  C        43.2976687214       18.0333531384       11.3508830138
  C        44.4863154759       18.0698419207       10.6251802937
  C        41.8438935006       17.0743896650       13.1506989778
  C        41.8609643694       17.0874887819       14.5728517928
  C        43.0761927111       17.1906752578       15.3204925566
  C        20.3085773810       17.9273423886       15.3014476742
  C        20.3028690630       17.9092880919       12.4888036840
  C        46.7889181138       17.2355063725        5.8829376638
  C        45.4932993618       17.1403193509        5.1525457277
  C        45.2785322471       16.1454047680        4.1867273037
  C        44.0962228054       16.1250984126        3.4509873205
  C        43.0995943716       17.0972106676        3.6641061956
  C        43.3069799766       18.0653232820        4.6645780974
  C        44.4899834767       18.0915482137        5.3956862180
  C        41.8512843046       17.1172344089        2.8711216827
  C        41.8649093577       17.1084147597        1.4499887161
  C        43.0781134203       17.1969107021        0.6973018774
  C        46.1530384694       26.6371664512        0.7262086190
  C        46.1620602811       26.6559844809        3.5358504618
  C        14.0401694826       17.8284499613        5.7055723971
  C        15.3537867499       17.8970779609        5.0045149592
  C        15.6233088354       18.9174932250        4.0805265209
  C        16.8470160912       18.9537784965        3.4168941454
  C        17.8261871922       17.9684963987        3.6527211106
  C        17.5622773775       16.9742165362        4.6119370017
  C        16.3408972596       16.9376531245        5.2794710253
  C        19.0926082657       17.9476278323        2.8851702630
  C        19.0749098846       17.9332382721        1.4639435698
  C        17.8582125051       17.8362304552        0.7169374960
  C        28.8099279734       14.0859863633       10.3616776439
  C        28.2130189992       12.9084820390       11.0529302992
  C        28.9440196052       12.1752679509       11.9994494746
  C        28.3528197546       11.0994654076       12.6578943698
  C        27.0175657280       10.7324808920       12.3935289377
  C        26.3089305473       11.4466861495       11.4102433868
  C        26.8967275343       12.5228732482       10.7510718910
  C        26.3526711866        9.6514114507       13.1578954021
  C        26.3391666111        9.6782754556       14.5790792507
  C        26.8450495310       10.7902385360       15.3241502465
  C        32.1622246039       21.2760497753       10.0693305579
  C        32.7550805123       22.4287715440       10.8102046808
  C        31.9978026144       23.1047584314       11.7798906619
  C        32.5663030099       24.1324760256       12.5279692507
  C        33.9061365824       24.5171878991       12.3251660395
  C        34.6468618074       23.8578143581       11.3254026392
  C        34.0830740541       22.8215657814       10.5830309299
  C        34.5308419090       25.5913214772       13.1339811438
  C        34.5123725317       25.5652609514       14.5561628793
  C        33.9952659192       24.4528691485       15.2918269158
  C        25.7232172575        8.6034290862       15.2979556488
  C        25.7127412664        8.6020761986       12.4847505128
  C        32.0879209965       21.1681364518        5.8320815893
  C        32.6467987535       22.3463746846        5.1061191316
  C        31.9197063720       22.9794021410        4.0857091406
  C        32.4863826135       24.0301072955        3.3659924368
  C        33.7963717315       24.4736228533        3.6396089135
  C        34.5019147975       23.8544889031        4.6902519845
  C        33.9390396993       22.8047143019        5.4105238999
  C        34.4381950773       25.5583392826        2.8587946091
  C        34.4660215270       25.5474388892        1.4356225021
  C        33.9739695694       24.4441627635        0.6687198142
  C        40.6216016893       17.0994792093        0.7368897229
  C        40.6259067586       17.1600897035        3.5456242531
  C        28.7286199409       14.1008395067        5.7778142635
  C        28.1265886031       12.9478109331        5.0465811730
  C        28.8702148160       12.2392614207        4.0901094447
  C        28.2959905041       11.1722162049        3.4035735957
  C        26.9620937622       10.7872567221        3.6468390563
  C        26.2362752316       11.4820589051        4.6326750337
  C        26.8091024270       12.5483923443        5.3226853665
  C        26.3255455524        9.6911025328        2.8773805318
  C        26.3255524122        9.6992607476        1.4553102190
  C        26.8352502110       10.8019535458        0.6999920621
  C        18.1354605742        3.1809300939       10.3170868251
  C        17.4060275335        4.2781383886       11.0156451339
  C        16.3901921710        3.9996696908       11.9430055569
  C        15.7423744764        5.0395760017       12.6065354828
  C        16.0943076452        6.3833217430       12.3670346864
  C        17.0837817672        6.6529618162       11.4033934378
  C        17.7329573732        5.6156909775       10.7383001595
  C        15.4699135927        7.4909614626       13.1301306722
  C        15.4851290902        7.4902301984       14.5518517421
  C        16.1865663487        6.4965313432       15.3050216427
  C        42.9456445365       31.8595190414       10.0727656980
  C        43.6459725834       30.7718200277       10.8167738022
  C        44.5914887795       31.0931844930       11.8028392465
  C        45.1972051925       30.0876706392       12.5505370827
  C        44.8707916587       28.7346112047       12.3356831304
  C        43.9449598135       28.4202251769       11.3224961416
  C        43.3361195496       29.4253412242       10.5744327258
  C        45.4884454734       27.6553439515       13.1388607993
  C        45.4925443095       27.6808964594       14.5605554268
  C        44.8053680574       28.6888752019       15.3071906600
  C        14.8562424272        8.5627649734       15.2642293408
  C        14.8747073710        8.5627806196       12.4515546511
  C        42.9463385385       31.9615628254        5.8089993202
  C        43.6915074414       30.8853739479        5.0954984955
  C        44.6562957017       31.1912411546        4.1233855470
  C        45.2777530266       30.1716353236        3.4056258116
  C        44.9537100730       28.8213577757        3.6430821959
  C        44.0199995608       28.5237198764        4.6536483405
  C        43.3917874615       29.5405087300        5.3658432897
  C        45.5627207798       27.7239533826        2.8578107633
  C        45.5329975340       27.7172716885        1.4365147607
  C        44.8266276778       28.7074854855        0.6835867010
  C        35.0827364275       26.6370947558        0.7346880428
  C        35.0515870296       26.6157397983        3.5449256083
  C        18.1486152391        3.2467726259        5.7066240928
  C        17.4299406928        4.3436001864        4.9973574798
  C        16.4145516430        4.0523055398        4.0739873998
  C        15.7661936667        5.0829187147        3.3986032810
  C        16.1209759203        6.4281532706        3.6211400384
  C        17.1125335208        6.7115619640        4.5782034119
  C        17.7602551120        5.6826747695        5.2579670105
  C        15.4904477504        7.5238422500        2.8486890877
  C        15.4962135054        7.5071621050        1.4275500500
  C        16.1928115928        6.5053581520        0.6808380393
  H        10.6724981938       12.4657697033        3.9044651151
  H        11.6947273251       10.5509127988        2.6626548476
  H        15.3917114547       11.1685132633        4.7722372789
  H        14.3512622519       13.0712669740        6.0174538168
  H        13.3764349730       11.6311329300        1.2013339772
  H        50.3224468695       22.7483075915        3.9867026708
  H        49.3192572233       24.6226505262        2.6806028107
  H        45.6420906422       24.1615669998        4.8641113901
  H        46.6631086158       22.2907546089        6.1725492381
  H        47.6297771511       23.5759271623        1.2460675495
  H        14.8721868469        8.5881386742        4.6085845956
  H        50.2869021297       22.7024030234       12.0606796954
  H        49.2690247682       24.5753304023       13.3606572889
  H        45.6109038623       24.1101692397       11.1452624058
  H        46.6529580853       22.2547848226        9.8310012630
  H        47.6079051234       23.5520112521       14.7967568509
  H        40.6111417168       17.0372970179       11.3945801926
  H        48.6872518430       14.0950571819        7.8001457294
  H        10.6812699368       12.4666981755       12.0935364079
  H        11.6894754292       10.5247097929       13.2972014559
  H        15.3932916821       11.1585557329       11.2054532148
  H        14.3648876419       13.0869883721        9.9902123513
  H        13.3759929950       11.6220671628       14.7531504827
  H        47.9302473977       14.2188859629        9.7109089841
  H        47.7800117591       14.3737973315        6.4956248941
  H        49.0819808654       18.5515344775       10.8669420299
  H        10.4160997564       14.1342638500        7.9989730618
  H        24.4834898724        3.0300073696        3.9130582562
  H        25.6256540539        4.8863441579        2.6866042091
  H        23.2542576014        7.7568405468        4.8397979327
  H        22.1309287057        5.8906372320        6.0684577766
  H        23.8250108151        5.7920409150        1.2552077934
  H        36.3659569213       32.1887515615        3.9709636242
  H        35.2219237262       30.3739451763        2.7002933671
  H        37.4723507258       27.4347033027        4.8905516944
  H        38.5970551816       29.2627017346        6.1706952219
  H        36.9860340140       29.4474289551        1.2803045910
  H        25.7366163139        8.6188050256        4.6434456973
  H        36.4511033732       32.2423464932       12.1105925323
  H        35.3313651222       30.4285074055       13.4024394157
  H        37.5185146910       27.4864396192       11.1509501697
  H        38.6131016478       29.3121732291        9.8461940734
  H        37.0172348949       29.4667210015       14.8332786283
  H        46.1093381657       26.5878653567       11.3855253638
  H        44.6681637425       35.1161115450        7.8140065724
  H        24.4448224523        3.0333582337       12.0775594509
  H        25.5886908385        4.8675230595       13.3243461449
  H        23.1896090650        7.7663692663       11.2418373445
  H        22.0574166467        5.9201744277        9.9947026864
  H        23.8128667335        5.7889364696       14.8069647090
  H        44.9534617861       34.3900446329        9.6949158001
  H        44.9013779046       34.2067289991        6.4906000964
  H        40.6654240610       33.2087323810       10.8527640828
  H        23.1506403436        1.9577802035        8.0045875815
  H        25.8055996581       19.5880975235        3.8689969208
  H        23.6331285583       19.6586878175        2.6484145793
  H        22.2833499623       16.2227349794        4.8566894184
  H        24.4593179364       16.1713748087        6.0858634715
  H        23.7028502613       17.6352913112        1.2382463855
  H        35.1908391219       15.4789691631        4.0432360780
  H        37.3026271058       15.4227960813        2.7142884991
  H        38.7174878130       18.8846974766        4.8399071841
  H        36.6003942983       18.9222802783        6.1728632563
  H        37.2321526356       17.3785568194        1.2427407047
  H        20.3218597567       17.9613183139        4.6461770776
  H        35.1346772216       15.4057188780       12.1425418739
  H        37.2927433748       15.3328434331       13.3896719531
  H        38.6893750867       18.7352883725       11.1591648379
  H        36.5281576175       18.7860188666        9.9018358212
  H        37.2282083068       17.3364166571       14.7928734129
  H        35.1358849585       26.6845352448       11.3908854725
  H        28.4998703125       21.0658607719        7.7837859791
  H        25.7719832103       19.6164153603       12.1740255640
  H        23.5862190194       19.6736792769       13.3873751425
  H        22.2965603225       16.1940681653       11.2129498311
  H        24.4847694235       16.1559032575        9.9987853514
  H        23.6933936152       17.6304373800       14.7913955238
  H        28.9902229012       21.7265497779        9.6446891729
  H        29.1925151069       21.6948916692        6.4632441562
  H        32.0282919149       18.6806649884       10.8992462336
  H        27.3665101486       19.0013728132        7.9992438959
  H        14.8596284761       19.6738090884       12.1051894777
  H        17.0293485034       19.7291770330       13.3387849357
  H        18.3039528689       16.1967253410       11.2427225872
  H        16.1310594541       16.1576771469       10.0075889508
  H        16.9135357983       17.7278648071       14.8074606325
  H        46.0781805254       15.4166942878       12.0371875091
  H        43.9455843576       15.3399049599       13.3300996380
  H        42.5261997480       18.7793602892       11.1714309111
  H        44.6598474714       18.8312339576        9.8682455055
  H        44.0136710111       17.2966227270       14.7822393328
  H        20.3024097065       17.9420726978       11.4007456498
  H        46.0528601727       15.4008975498        4.0162827152
  H        43.9306482023       15.3503238616        2.7055690700
  H        42.5431385623       18.8213366384        4.8340489235
  H        44.6709269759       18.8564152311        6.1468618478
  H        44.0174116042       17.3066183646        1.2316774969
  H        46.1989191239       26.6825606336        4.6232946772
  H        52.7413270578       21.0627029420        8.1946699711
  H        14.8646350456       19.6760004287        3.9010485231
  H        17.0582524817       19.7485848581        2.7047655515
  H        18.3112184546       16.2073828359        4.7986844965
  H        16.1202903368       16.1593142864        6.0058885211
  H        16.9212058001       17.7317841502        1.2557052726
  H        52.3228784291       21.6737113511        6.2944724746
  H        52.0138607356       21.7027952553        9.4955672591
  H        49.0688750014       18.6087447803        5.2038605796
  H        13.2474415689       19.0163167811        7.9757946452
  H        29.9718636457       12.4645623707       12.2071154605
  H        28.9210398260       10.5315772403       13.3913962005
  H        25.2769372265       11.1742345989       11.1990239625
  H        26.3455456863       13.0960132235       10.0096223685
  H        27.2147638035       11.6570792997       14.7846472628
  H        30.9672891414       22.7988770762       11.9442685957
  H        31.9727798858       24.6526370899       13.2767179439
  H        35.6840471094       24.1434521452       11.1621864675
  H        34.6628426896       22.2888604647        9.8327422731
  H        33.6391061886       23.5847772159       14.7442830730
  H        25.7417612525        8.5828766295       11.3967059421
  H        30.9168698785       22.6245864064        3.8573457777
  H        31.9125786611       24.5209147068        2.5829636986
  H        35.5154619571       24.1829149630        4.9108970208
  H        34.4935236625       22.3069147372        6.2024864774
  H        33.6031370712       23.5673064411        1.1914802535
  H        40.6276302782       17.1414692683        4.6337598196
  H        32.5333468049       14.1450242345        8.2830698783
  H        29.9012767830       12.5319596632        3.9048385225
  H        28.8805569884       10.6192986623        2.6714967575
  H        25.2042425060       11.1977851652        4.8276355657
  H        26.2449818904       13.0993505582        6.0714812224
  H        27.1959115071       11.6784349139        1.2303280138
  H        33.2851872180       14.1365784178        6.4025444498
  H        33.4072227007       14.3798103754        9.6354139069
  H        32.1536461604       18.4669610033        5.0553780041
  H        30.2365096881       14.1831936431        8.0952612098
  H        16.1181114937        2.9631465194       12.1292766483
  H        14.9528228686        4.8200946116       13.3220545202
  H        17.3662358943        7.6858585637       11.2104236528
  H        18.5150614896        5.8184287349       10.0105476242
  H        16.7530145031        5.7391154104       14.7715133096
  H        44.8277397524       32.1402777778       11.9769931724
  H        45.9370725127       30.3414460718       13.3064729999
  H        43.6822672909       27.3781498683       11.1524187606
  H        42.5994789373       29.1899980286        9.8097890344
  H        44.2299923697       29.4366249576       14.7688815938
  H        14.8510002706        8.5460471353       11.3633323140
  H        44.9000229143       32.2339072015        3.9320921432
  H        46.0248312424       30.4128122161        2.6525428643
  H        43.7628319383       27.4840132407        4.8450559424
  H        42.6450622791       29.3177667070        6.1240857974
  H        44.2680926144       29.4703381144        1.2181964415
  H        35.0028825582       26.6292654747        4.6322016389
  H        36.6051149384       35.1339442384        8.1807896605
  H        16.1433460059        3.0127347056        3.9044121953
  H        14.9737220545        4.8560389646        2.6886917901
  H        17.3961578588        7.7470233381        4.7549373294
  H        18.5432780481        5.8931540397        5.9825598084
  H        16.7641529044        5.7550429075        1.2192673827
  H        36.2786094840       34.4821986462        6.2732062769
  H        36.3807148821       34.2092782636        9.4998879392
  H        40.5792129719       33.2022359057        5.1538162480
  H        17.4713377674        1.9474278125        7.9740408146
  H        29.1766546320       19.6535798155       12.3929181222
  H        28.6516515597       18.6734459626        3.7005829262
  H        30.7971706108       15.4390715188        3.6514386854
  H        32.0522673083       16.7182474642       12.4877022414
  H        27.7538935990       18.1287324673       14.0377351998
  H        29.3382927164       15.5708474900       15.1753160345
  H        32.6741709854       17.8996995567        1.2899528046
  H        18.8534196310        0.8689162449       12.3353654123
  H        40.5279011229       35.2291247985        3.9520441706
  H        42.3240193104       34.4188430631        3.5907038460
  H        22.0876344871        0.6922227797       12.3513436739
  H        11.5967353687       18.7128057583       12.3828901487
  H        52.2647834546       18.4317978182        3.6773318147
  H        49.2552142248       16.4766378331        3.5845033974
  H        10.1505156757       15.7983567115       12.2926268293
  H        50.8502146149       17.6925027780        3.9539973165
  H        10.0461087514       17.3948089578       12.0519243376
  H        20.2147392115        0.0021837097       12.0419994734
  H        39.1834722429       36.1243866935        3.6864699366
 Ni        30.2691321903       18.0093570655        2.0819753290
 Ni        31.0756301049       16.4225020121        0.3371190030
 Ni        29.5081655571       17.9619860272       -0.3322878048
 Ni        29.8827108371       17.6040266593       13.0777684979
  O        10.6499621754       14.3651149690        5.4858332905
  O        12.6131550400       14.6574014681        6.5839058955
  O        49.1479000932       16.8459040544        7.9899149768
  O        50.3501096183       20.9361649079        5.6482203892
  O        48.3485003994       20.5932755670        6.6660104575
  O        11.0516458081       17.0537703521        6.5006958430
  O        50.3208248796       20.8816946224       10.4069342553
  O        48.3466456278       20.5867324604        9.3271924701
  O        49.5435154351       18.2483916189       10.0684074096
  O        12.3589379086       18.6247356979        7.9997848850
  O        48.6932303831       14.1485622584        6.7513589384
  O         8.2099131024       14.2104527773        9.3225481464
  O        10.7353375190       14.5067580578       10.6643641529
  O        12.5717603863       14.5827104239        9.3285604317
  O        22.8451741272        2.0442919242        5.4868709783
  O        21.6063291825        3.5931374589        6.5888080034
  O        42.0578759295       34.1371568350        7.9788434866
  O        37.9814296602       33.1354251841        5.5716837174
  O        39.2166064335       31.5743011975        6.6648086870
  O        20.3083280733        1.0395777581        6.5020940765
  O        38.0245868751       33.1853108848       10.4155706162
  O        39.2183214308       31.5830449803        9.3272842336
  O        40.6521782181       33.7692477733       10.0600118650
  O        18.2561653767        1.3764493132        7.9967615054
  O        44.6221654747       35.1005707359        6.7587631283
  O        24.2053751474       -0.0000195395        9.3207644351
  O        22.7532686254        2.0574790652       10.5837503054
  O        21.6251248064        3.5967347790        9.3438308045
  O        27.4979536344       18.6181443350        5.4063836662
  O        26.6952688345       16.9109293595        6.6644331346
  O        30.6368149989       19.3399992761        7.9214273915
  O        33.6258317318       16.3409999447        5.6728280475
  O        34.3048047489       18.2388603105        6.7388819438
  O        29.6043436848       17.0085639307        6.5658246838
  O        33.4727391795       16.3571954321       10.5747493299
  O        34.2609285707       18.1639455637        9.4144160234
  O        31.6397326695       18.3350574785       10.0788866427
  O        30.3280939724       15.1504502140        8.0835178100
  O        28.5513781646       21.0147164847        6.7377271746
  O        28.5018851953       20.9554138367        9.3098405587
  O        27.4599158791       18.6814434955       10.6472484084
  O        26.6956901961       16.9265832799        9.4091376597
  O        13.1476484553       18.6935160197       10.5864189237
  O        13.9183506769       16.9160191999        9.4040888054
  O        50.5961659970       19.3503583865        8.0210593566
  O        47.6821683937       16.3268799458       10.4169209255
  O        46.9504133396       18.1757090146        9.3250351887
  O        11.0693043221       17.0158297701        9.4895957785
  O        47.6763503074       16.3356067199        5.6527396058
  O        46.9276883373       18.2357653437        6.6642972068
  O        49.5688409872       18.3177575267        5.9824776868
  O        10.3186210419       15.1001046609        7.9971547016
  O        52.6707322855       21.0279693661        9.2418281974
  O        12.1468198330       20.8913491379        6.6733547341
  O        13.1047615887       18.6142230951        5.3260287472
  O        13.9555284027       16.9867867836        6.6651136700
  O        30.0002296764       14.4411749862       10.6696034165
  O        28.0790526180       14.6571612105        9.4843654184
  O        32.1384032976       16.8473742199        8.0796212987
  O        30.9270387453       21.0275423246       10.2433174706
  O        32.9560862372       20.5899688892        9.3257680540
  O        29.5596235054       17.0747166056        9.5707315872
  O        30.8848175523       20.8101729446        5.5649998576
  O        32.8673492030       20.5815080494        6.6571105660
  O        31.6466761516       18.1755467461        5.8299024104
  O        28.2604654242       18.6217482982        7.9897439119
  O        32.4941122165       14.2171851050        9.3393970101
  O        32.4116342388       14.2052893632        6.8230096322
  O        29.8820359012       14.5125090454        5.4100932439
  O        28.0447063115       14.5848581675        6.7461806828
  O        17.8892755414        1.9665963360       10.6627794298
  O        18.9563448574        3.5271404821        9.4079568180
  O        39.1684975662       34.1385956057        7.9970987036
  O        43.2801454477       33.0588882892       10.3316624829
  O        42.0342909948       31.5064830389        9.2415207856
  O        20.3176633903        1.0367411039        9.4799986250
  O        43.2760070329       33.1824871854        5.5748923894
  O        42.0051681706       31.5840894064        6.5830097463
  O        40.5790732635       33.7752144067        5.9357410326
  O        22.3673414995        1.3847885943        7.9978720839
  O        36.6728552856       35.0997825815        9.2333319120
  O        16.4457026206        0.0640560871        6.6681809117
  O        17.9363993201        2.0431604895        5.3264388314
  O        18.9191778156        3.5930874475        6.6658719848
  O        29.6141772656       18.7580446011        3.8361617750
  O        29.8308783642       19.1319609659       11.8887729848
  O        31.6287163613       15.8158550006        3.9997205737
  O        31.1700495478       16.4776132276       12.1539242490
  O        32.0947467932       17.2152533972        1.6701941764
  O        30.2097498778       15.0963401119       15.1441949134
  O        28.6302000266       18.5450628607       14.1441785137
  O        39.4567743779       35.2437879195        4.0019679043
  O        19.1414063693        0.0045293236       11.9905031934
  O        41.9696294220       35.1727792258        4.0872360935
  O        21.6912962861       -0.0693348357       11.8958677246
  O        51.3647948744       18.6143979964        4.0052890095
  O        10.7510578182       18.7471356100       11.9051112111
  O        50.0796401310       16.4127244483        4.0917786606
  O         9.5245007456       16.4831251034       11.9911820257
 Zr         9.2975483560       16.0526277760        6.1824975398
 Zr        49.8369686664       16.0069574609        9.7465728622
 Zr        22.0731757639        0.0301212896        6.1890005369
 Zr        42.4607451023       35.1533721477        9.8008690638
 Zr        29.5900517997       19.0153267226        6.1111672574
 Zr        29.5534555884       19.2022318873        9.7654463105
 Zr        11.0382417765       19.0523117404        9.8281750465
 Zr        11.0440078524       19.1550203210        6.2511860050
 Zr        31.3111888236       16.1124981038        9.9176106388
 Zr        31.4351645673       15.9911380716        6.3194407444
 Zr        18.6011329855       -0.0015257070        9.7634509423
 Zr        18.5063942501       -0.0081967138        6.2135585321
 Zr        12.3020614258       16.3233903245        7.9905980486
 Zr        48.6172400574       18.8332649269        8.0108262604
 Zr        20.3156503679        2.4738482592        7.9905499530
 Zr        40.6426451379       32.6865966784        7.9777994785
 Zr        28.3359698353       16.3337404554        8.0700307937
 Zr        32.6025915085       18.8454239223        8.0304994462
  H        28.9607683771       17.9112367831        1.1831265368
  H        30.5094216044       15.2857705770       14.2193961589
  H        31.9954882982       16.3872607092        3.2710380738
