     574
 i =      187, E =     -4778.8694840064
  C        11.8588280754       14.0534749220        5.7415749994
  C        12.4563496407       12.8906205959        5.0232447424
  C        11.7046186787       12.1715620342        4.0817110524
  C        12.2810178311       11.1093368207        3.3894261138
  C        13.6217035237       10.7397984671        3.6169511844
  C        14.3549262940       11.4435429033        4.5902481485
  C        13.7820340187       12.5085616483        5.2816832523
  C        14.2611971453        9.6490693838        2.8436219446
  C        14.2564914116        9.6570109285        1.4219335754
  C        13.7433770624       10.7591648577        0.6680419092
  C        49.1269274082       21.2331730056        5.8796169589
  C        48.5502693577       22.4011895051        5.1525947892
  C        49.3002205912       23.0682910131        4.1713914572
  C        48.7333260594       24.1075061559        3.4382625371
  C        47.4028725849       24.5093396103        3.6670640284
  C        46.6720803611       23.8607776575        4.6808960902
  C        47.2344819788       22.8158130736        5.4101790645
  C        46.7726022863       25.5870307694        2.8698225604
  C        46.7614510555       25.5573464717        1.4480617382
  C        47.2614069979       24.4422768173        0.7045420656
  C        14.8604083106        8.5706678385        0.7086721258
  C        14.8919543812        8.5971286498        3.5202904952
  C        49.1133316429       21.2035052901       10.1453517996
  C        48.5279738398       22.3648613100       10.8725563599
  C        49.2671326559       23.0254110923       11.8656325038
  C        48.6908201267       24.0599962704       12.5970746766
  C        47.3604969454       24.4569646379       12.3586528764
  C        46.6401664703       23.8122254801       11.3349590389
  C        47.2137045820       22.7763041416       10.6031932348
  C        46.7219986336       25.5318837412       13.1496987017
  C        46.7336500776       25.5281792692       14.5714022520
  C        47.2491135440       24.4289782050       15.3277811157
  C        40.6329308376       17.1284799028       15.3222526286
  C        40.6537446327       17.1647241000       12.5135684156
  C        11.8831038218       14.0865290189       10.2855277534
  C        12.4725397809       12.9109325090       10.9899103964
  C        11.7149772878       12.1774800158       11.9157855789
  C        12.2816356641       11.0950612312       12.5841846423
  C        13.6205629080       10.7215913902       12.3525343662
  C        14.3585803165       11.4373689816       11.3919278434
  C        13.7930788033       12.5185053006       10.7192481729
  C        14.2541518374        9.6247980409       13.1228922333
  C        14.2527547342        9.6447166529       14.5447231458
  C        13.7428867342       10.7536717268       15.2917907219
  C        22.5120357954        3.2440937658        5.7530420914
  C        23.2276734511        4.3483334199        5.0531189100
  C        24.2236147666        4.0660873762        4.1064789970
  C        24.8523805726        5.1041317296        3.4239191202
  C        24.5007850609        6.4465897276        3.6678145683
  C        23.5328920061        6.7203657224        4.6513498437
  C        22.8995021054        5.6840806268        5.3323926761
  C        25.1087810641        7.5515982020        2.8919998895
  C        25.0811428477        7.5449073309        1.4704545001
  C        24.3762225634        6.5474882394        0.7244415649
  C        38.3034114583       31.9301586646        5.8491116388
  C        37.5758837164       30.8401706249        5.1389733879
  C        36.6167667315       31.1425695027        4.1604636271
  C        36.0023315635       30.1210600488        3.4416746471
  C        36.3325872750       28.7727473703        3.6805129933
  C        37.2620871395       28.4777949607        4.6954070762
  C        37.8806327198       29.4979465560        5.4128945588
  C        35.7327622024       27.6799594116        2.8835775656
  C        35.7635504706       27.6951220256        1.4624380331
  C        36.4689789729       28.6977777300        0.7251083308
  C        25.7063143823        8.6136360266        0.7505347719
  C        25.7074832278        8.6253964509        3.5628565411
  C        38.3289396844       31.9625005777       10.1558911518
  C        37.6075721547       30.8892420855       10.8974064057
  C        36.6799737700       31.1977371999       11.9040710076
  C        36.0707746788       30.1788744443       12.6337240980
  C        36.3751303041       28.8265739440       12.3798112742
  C        37.2800233299       28.5280464401       11.3428433271
  C        37.8915035438       29.5433697690       10.6146408438
  C        35.7685394062       27.7271167191       13.1640794120
  C        35.7818719284       27.7194047557       14.5858885646
  C        36.4775946709       28.7094950246       15.3484018645
  C        46.1355940210       26.6207754609       15.2815586136
  C        46.0880628836       26.5802719034       12.4736655628
  C        22.4610558472        3.2559007458       10.2575112799
  C        23.1555073361        4.3644553095       10.9801699727
  C        24.1583869826        4.0780289416       11.9200479068
  C        24.7870084823        5.1079138155       12.6157516759
  C        24.4328863940        6.4539046367       12.3943176041
  C        23.4530589621        6.7336161917       11.4229425364
  C        22.8197794385        5.7039612394       10.7276994418
  C        25.0646464799        7.5514336390       13.1685526695
  C        25.0586559713        7.5443841353       14.5913162478
  C        24.3637916971        6.5483317795       15.3475975840
  C        26.6219599094       17.8618842770        5.7879269734
  C        25.3134733795       17.9024153755        5.0632480846
  C        25.0616865722       18.8871507710        4.0949737405
  C        23.8490223646       18.9062019492        3.4082164816
  C        22.8521562379       17.9427907354        3.6657955459
  C        23.1014068877       16.9803233123        4.6624513757
  C        24.3156367010       16.9564125785        5.3477236576
  C        21.5790143657       17.9261283330        2.9010248964
  C        21.5781857403       17.8976769616        1.4784203993
  C        22.7829023137       17.7677938195        0.7175179414
  C        34.4353033071       17.1976238163        5.9170852799
  C        35.7285336210       17.1431831316        5.1731342754
  C        35.9465940870       16.1560453522        4.1990882630
  C        37.1262625006       16.1441888920        3.4598826320
  C        38.1218678612       17.1162271316        3.6790819477
  C        37.9083860270       18.0821161652        4.6801912710
  C        36.7247617072       18.1006484479        5.4143705331
  C        39.3773603698       17.1240101438        2.8946284533
  C        39.3737360669       17.1374594802        1.4735582725
  C        38.1666290277       17.2556264247        0.7151155140
  C        20.3314846971       17.9157421937        0.7698664234
  C        20.3538506344       17.9334926075        3.5829720646
  C        34.4734219863       17.2452973499       10.1830152085
  C        35.7758459269       17.1709404409       10.9070269235
  C        35.9909969803       16.1835808991       11.8798279223
  C        37.1778571531       16.1632210879       12.6066942005
  C        38.1761072859       17.1303624230       12.3805949826
  C        37.9669681092       18.0934841910       11.3763440442
  C        36.7784669381       18.1181374674       10.6516824668
  C        39.4222364750       17.1478564339       13.1768280142
  C        39.3967929959       17.1520288277       14.5977012943
  C        38.1773758137       17.2618447392       15.3382714719
  C        35.1524778793       26.6398426576       15.2900630567
  C        35.1763712847       26.6576103045       12.4810642721
  C        26.5703857599       17.8267824045       10.3254118591
  C        25.2554287258       17.8675462411       11.0323307697
  C        24.9886441905       18.8707874755       11.9761672783
  C        23.7713613887       18.8914605828       12.6512686722
  C        22.7910507329       17.9094145969       12.4048834324
  C        23.0518737486       16.9313427939       11.4282567537
  C        24.2704141570       16.9080265034       10.7523412629
  C        21.5274356193       17.8881482642       13.1779272659
  C        21.5516576564       17.8767642613       14.5993783617
  C        22.7699821791       17.7579021545       15.3410401193
  C        14.0466427338       17.8280691672       10.2895428853
  C        15.3503247434       17.8822664488       11.0160834084
  C        15.6077364276       18.8824245966       11.9667474041
  C        16.8163892051       18.8997159301       12.6603756395
  C        17.8021248971       17.9197264370       12.4255969558
  C        17.5494813657       16.9439841137       11.4427780397
  C        16.3403283028       16.9219994964       10.7508286039
  C        19.0713295584       17.8993825158       13.1943402050
  C        19.0704784533       17.8949977169       14.6168363775
  C        17.8636960902       17.7972368269       15.3785688751
  C        46.8066180496       17.2200175258       10.1596696792
  C        45.5186739693       17.1625833919       10.9084709239
  C        45.3135244665       16.1881315734       11.8972173569
  C        44.1334089244       16.1746720150       12.6357074868
  C        43.1296385611       17.1357696836       12.4065775327
  C        43.3325038145       18.0905754560       11.3920835505
  C        44.5133521551       18.1080279036       10.6548073357
  C        41.8765907672       17.1486443561       13.1941434760
  C        41.8806337439       17.1453727254       14.6157403475
  C        43.0884938525       17.2407130565       15.3760645479
  C        20.3174748289       17.9041797456       15.3247974730
  C        20.2952969071       17.8793431912       12.5115834267
  C        46.7856221776       17.2307878376        5.8904609697
  C        45.4813800496       17.1247365755        5.1770958119
  C        45.2627130362       16.1284195502        4.2138582577
  C        44.0742415481       16.1034033852        3.4884790169
  C        43.0756274499       17.0714141824        3.7100820835
  C        43.2840613843       18.0365872260        4.7127482195
  C        44.4738875029       18.0682673371        5.4327933571
  C        41.8304694878       17.0964111854        2.9122188385
  C        41.8573191353       17.1164984021        1.4915182717
  C        43.0776342529       17.2244763214        0.7526443649
  C        46.1533789972       26.6371962166        0.7263163903
  C        46.1626243554       26.6561419868        3.5359511900
  C        14.0460173282       17.8317313940        5.7088944949
  C        15.3673419015       17.9054208611        5.0192122370
  C        15.6413688137       18.9186957887        4.0884225647
  C        16.8708134725       18.9544328496        3.4342622067
  C        17.8540573480       17.9761431524        3.6851102585
  C        17.5870907145       16.9923997106        4.6545975831
  C        16.3596668395       16.9559687153        5.3121157824
  C        19.1213185317       17.9482120770        2.9161378654
  C        19.0965613637       17.9188249842        1.4948139486
  C        17.8765006977       17.8078903175        0.7547403051
  C        28.8103505649       14.0917413079       10.3884488324
  C        28.1966583258       12.9184361402       11.0766321016
  C        28.9202728765       12.1796940368       12.0242971159
  C        28.3226400737       11.1035092550       12.6754401439
  C        26.9870454468       10.7434716262       12.4042938604
  C        26.2850297557       11.4633547319       11.4208834799
  C        26.8807819820       12.5390936362       10.7672439908
  C        26.3190913408        9.6630791271       13.1656770122
  C        26.3098139967        9.6873188678       14.5868884182
  C        26.8191024600       10.7972573898       15.3330205283
  C        32.1780774540       21.2407728202       10.1475333399
  C        32.7737047981       22.4069509410       10.8654221266
  C        32.0258111896       23.0863207179       11.8391403016
  C        32.5974696187       24.1255964676       12.5668365556
  C        33.9323594112       24.5129712759       12.3409318515
  C        34.6626490663       23.8525367952       11.3351702326
  C        34.0933442403       22.8078065963       10.6096334260
  C        34.5629723078       25.5873825200       13.1409110000
  C        34.5583779503       25.5573762842       14.5624031937
  C        34.0499882675       24.4420187680       15.3003462605
  C        25.6989275271        8.6100984939       15.3056939197
  C        25.6800706926        8.6136040550       12.4924890898
  C        32.1060590842       21.2310419978        5.8861562692
  C        32.7003536507       22.3801114550        5.1410110221
  C        31.9685134557       23.0386429745        4.1407453905
  C        32.5515301053       24.0655223786        3.4021469044
  C        33.8802637989       24.4646143256        3.6460025008
  C        34.5950637686       23.8197432511        4.6736195497
  C        34.0169066542       22.7867973804        5.4070759953
  C        34.5211290923       25.5447245415        2.8611984894
  C        34.5360006289       25.5357310803        1.4393249831
  C        34.0384776365       24.4322327969        0.6771375306
  C        40.6209978965       17.1171944528        0.7664452031
  C        40.5991576861       17.1200860707        3.5763119090
  C        28.7396079126       14.0658417721        5.8177144354
  C        28.1361304124       12.9180683259        5.0793025990
  C        28.8763896939       12.2167482582        4.1149200280
  C        28.2968506706       11.1603617888        3.4161584295
  C        26.9622899560       10.7773837077        3.6583581929
  C        26.2395289256       11.4655248687        4.6511308911
  C        26.8163245252       12.5234960718        5.3503860448
  C        26.3218548268        9.6864108866        2.8853205103
  C        26.3138457130        9.6990786867        1.4635270231
  C        26.8196679757       10.8038463423        0.7090117171
  C        18.1353515811        3.1810547147       10.3171285302
  C        17.4061766285        4.2783240121       11.0158001437
  C        16.3903202701        4.0000068592       11.9431766402
  C        15.7426814315        5.0400291753       12.6066894889
  C        16.0947977083        6.3837196693       12.3671279355
  C        17.0843182062        6.6531959390       11.4034955621
  C        17.7333264234        5.6158209320       10.7384144595
  C        15.4704958805        7.4914283709       13.1301743456
  C        15.4856520528        7.4906676924       14.5518858434
  C        16.1871230446        6.4969925644       15.3050568266
  C        42.9459151887       31.8595711132       10.0729157351
  C        43.6462346022       30.7719124679       10.8169950812
  C        44.5917726613       31.0932456125       11.8030468868
  C        45.1975190394       30.0877064713       12.5506989694
  C        44.8711196803       28.7346427567       12.3358178099
  C        43.9453743442       28.4202822458       11.3225411739
  C        43.3365185226       29.4254239141       10.5745332365
  C        45.4887550842       27.6553306468       13.1389553453
  C        45.4928234417       27.6808707584       14.5606502396
  C        44.8056429644       28.6888481887       15.3072849234
  C        14.8566947333        8.5631626070       15.2642478382
  C        14.8753398143        8.5632659978       12.4515825729
  C        42.9464840868       31.9616234858        5.8090400924
  C        43.6917457177       30.8854942741        5.0955085391
  C        44.6562952363       31.1913870593        4.1231687310
  C        45.2778374846       30.1718055087        3.4054408473
  C        44.9541928085       28.8214799549        3.6431867954
  C        44.0207783232       28.5238195707        4.6540284794
  C        43.3925087711       29.5405901070        5.3661985961
  C        45.5632219415       27.7240887485        2.8579142822
  C        45.5333512407       27.7173131519        1.4366185064
  C        44.8269424298       28.7074930816        0.6836791893
  C        35.1421756890       26.6280694104        0.7348760010
  C        35.1304166671       26.6037502339        3.5445363355
  C        18.1485803256        3.2470231361        5.7065865156
  C        17.4300714347        4.3438742576        4.9972764551
  C        16.4147411160        4.0526094351        4.0738418067
  C        15.7664299429        5.0832539308        3.3984757674
  C        16.1211863315        6.4284742371        3.6211519561
  C        17.1126680651        6.7118497136        4.5783029302
  C        17.7603421842        5.6829258770        5.2580486857
  C        15.4907187120        7.5241688806        2.8486858356
  C        15.4965530749        7.5075168171        1.4275518833
  C        16.1932890509        6.5057772107        0.6808714011
  H        10.6724197070       12.4655311565        3.9048560161
  H        11.6947424304       10.5507315673        2.6629710078
  H        15.3920817580       11.1692338184        4.7717105113
  H        14.3516104420       13.0720191061        6.0168526754
  H        13.3764308534       11.6313032001        1.2013730865
  H        50.3228630117       22.7481100665        3.9865082305
  H        49.3197644597       24.6225980821        2.6805295467
  H        45.6427104050       24.1618168896        4.8643001369
  H        46.6636123719       22.2908269141        6.1725504352
  H        47.6300399772       23.5759231942        1.2461988651
  H        14.8723592052        8.5884526839        4.6085994533
  H        50.2871342997       22.7024562297       12.0606262782
  H        49.2692153564       24.5753677217       13.3606340720
  H        45.6108708447       24.1097194762       11.1456985001
  H        46.6529815892       22.2543464171        9.8314231419
  H        47.6079587835       23.5518923427       14.7968754573
  H        40.6608112195       17.1351519720       11.4257018753
  H        48.6871937993       14.0950055001        7.8000618791
  H        10.6814262968       12.4663568527       12.0930261564
  H        11.6898493072       10.5244758646       13.2967302504
  H        15.3941257018       11.1597607934       11.2062072588
  H        14.3655226511       13.0881061838        9.9909807679
  H        13.3761752852       11.6223305804       14.7531475033
  H        47.9302898731       14.2183569091        9.7109546156
  H        47.7801638009       14.3740376895        6.4954256155
  H        49.0846492780       18.5527777960       10.8676782388
  H        10.4163019527       14.1342810075        7.9986770919
  H        24.4826073013        3.0269334429        3.9161305301
  H        25.6248817655        4.8850937072        2.6899680980
  H        23.2540372330        7.7539180896        4.8458286878
  H        22.1300526870        5.8860415617        6.0735515926
  H        23.8138718580        5.7916253830        1.2648334819
  H        36.3779642882       32.1853985877        3.9655004997
  H        35.2580253307       30.3581574298        2.6846709311
  H        37.5241624110       27.4391628523        4.8860982472
  H        38.6241869229       29.2790851135        6.1755438768
  H        37.0346211583       29.4471918017        1.2710610671
  H        25.7413247226        8.6086690606        4.6507199430
  H        36.4575270015       32.2419010730       12.1120319781
  H        35.3460200982       30.4230705438       13.4072338753
  H        37.5263328375       27.4878378590       11.1403136679
  H        38.6130218302       29.3183999451        9.8330332007
  H        37.0510110772       29.4674426526       14.8225250214
  H        46.1095762856       26.5877849868       11.3856324483
  H        44.6682037302       35.1161573407        7.8139740004
  H        24.4360938387        3.0397212119       12.0867658330
  H        25.5683483130        4.8788037453       13.3372712752
  H        23.1681008182        7.7682143725       11.2429131748
  H        22.0475133651        5.9171569049        9.9922035725
  H        23.7913207620        5.7935646427       14.8162394271
  H        44.9537445334       34.3903160998        9.6951166804
  H        44.9015906641       34.2067165210        6.4907076437
  H        40.6659525719       33.2091943947       10.8532096279
  H        23.1504863516        1.9578530675        8.0053107142
  H        25.8306301720       19.6305141944        3.8964135252
  H        23.6586570533       19.6770409020        2.6644077187
  H        22.3441522222       16.2272232087        4.8709784181
  H        24.5177943747       16.1999185116        6.1024868392
  H        23.7231889474       17.6466523308        1.2474409678
  H        35.1766458773       15.4045738289        4.0389297444
  H        37.2970035657       15.3717056814        2.7130081585
  H        38.6704729694       18.8391399304        4.8536143982
  H        36.5424597144       18.8601186593        6.1712515603
  H        37.2273394995       17.3749895014        1.2475200842
  H        20.3606940517       17.9792199576        4.6706160047
  H        35.2086430845       15.4507363022       12.0627503920
  H        37.3456693288       15.3942490840       13.3575952580
  H        38.7321174299       18.8463316651       11.1985340366
  H        36.5936993997       18.8785545960        9.8966063227
  H        37.2461419677       17.3840299719       14.7924810490
  H        35.1460617631       26.6847514822       11.3934768655
  H        28.5058916970       21.0810419814        7.9759259253
  H        25.7478285725       19.6273733749       12.1614250827
  H        23.5640035807       19.6734528924       13.3785978063
  H        22.3031236008       16.1665629471       11.2321151923
  H        24.4882141034       16.1412010365       10.0127559078
  H        23.7003308126       17.6291020724       14.7959926277
  H        29.0082907904       21.7200107074        9.7580173944
  H        29.1595925365       21.7455577125        6.6269878214
  H        32.0814326324       18.5445971442       10.9943266294
  H        27.3979030440       19.0670510781        8.0858228854
  H        14.8502313732       19.6419633238       12.1468493256
  H        17.0121862491       19.6816570345       13.3909633261
  H        18.3000251833       16.1796016237       11.2520875260
  H        16.1339897777       16.1552183007       10.0079222133
  H        16.9209234667       17.6815432324       14.8518067341
  H        46.0956594228       15.4549220574       12.0795735674
  H        43.9736732069       15.4111580184       13.3938453239
  H        42.5652430912       18.8406809919       11.2119311935
  H        44.6874111330       18.8590920179        9.8878789805
  H        44.0303618266       17.3588947872       14.8479139753
  H        20.2890724358       17.9113697653       11.4235139710
  H        46.0399695872       15.3890384936        4.0346784117
  H        43.9071241552       15.3312393994        2.7406745138
  H        42.5175564201       18.7880982430        4.8901014725
  H        44.6574652533       18.8328632204        6.1836053508
  H        44.0110918597       17.3290789859        1.2980014807
  H        46.1996542896       26.6827859366        4.6233881682
  H        52.7413580812       21.0627299965        8.1947207798
  H        14.8809964533       19.6719215049        3.8940839500
  H        17.0822621428       19.7429188866        2.7151681530
  H        18.3377332026       16.2309921931        4.8563268715
  H        16.1382979526       16.1832638215        6.0442869705
  H        16.9432867700       17.7003726982        1.2993808949
  H        52.3229599683       21.6734726260        6.2941020309
  H        52.0136216518       21.7023549635        9.4957334267
  H        49.0678748094       18.6077930801        5.2040154529
  H        13.2479137015       19.0159576944        7.9775814880
  H        29.9482450590       12.4644374795       12.2373388946
  H        28.8857801055       10.5294339743       13.4080765478
  H        25.2528462028       11.1955364025       11.2045435346
  H        26.3367495266       13.1162425271       10.0235762078
  H        27.1854444155       11.6649303628       14.7928511618
  H        31.0005877075       22.7731285720       12.0210496240
  H        32.0128882956       24.6517924999       13.3183463685
  H        35.6958207989       24.1428865242       11.1557004413
  H        34.6623952589       22.2715337553        9.8537262772
  H        33.6915920894       23.5749129339       14.7529542679
  H        25.7080592156        8.5954648728       11.4044144700
  H        30.9444124059       22.7276674521        3.9481247046
  H        31.9766808935       24.5772446957        2.6333281133
  H        35.6235101676       24.1172563306        4.8677836820
  H        34.5737484877       22.2668893819        6.1832257402
  H        33.6709627067       23.5572393163        1.2055387011
  H        40.5907113057       17.0818722025        4.6639556492
  H        32.5135228528       14.1473411478        8.2592100049
  H        29.9081954833       12.5084178881        3.9321685862
  H        28.8781576503       10.6133701591        2.6770163896
  H        25.2069026437       11.1823287877        4.8445239746
  H        26.2549101421       13.0711934744        6.1036803663
  H        27.1852463718       11.6769388864        1.2415221726
  H        33.3013611660       14.2081693561        6.4494449212
  H        33.4083250630       14.4139184452        9.6032861413
  H        32.1397294956       18.5789495221        5.2060688051
  H        30.2312262509       14.1926410056        8.0681058076
  H        16.1181353989        2.9635144561       12.1294669760
  H        14.9530971433        4.8207002898       13.3222168635
  H        17.3669054154        7.6860509453       11.2105001412
  H        18.5154823212        5.8184281468       10.0106817810
  H        16.7536695268        5.7396419013       14.7715594200
  H        44.8280233463       32.1403345824       11.9772484432
  H        45.9373522949       30.3414743681       13.3066716051
  H        43.6827128890       27.3782092501       11.1523988579
  H        42.5999376757       29.1900927303        9.8098337358
  H        44.2302744925       29.4366024219       14.7689739196
  H        14.8517081525        8.5466069795       11.3633581574
  H        44.8997625866       32.2340747762        3.9316511519
  H        46.0246967633       30.4130598786        2.6521650910
  H        43.7639625381       27.4840760568        4.8457095351
  H        42.6461029671       29.3177829320        6.1247315928
  H        44.2684074586       29.4703469867        1.2182848656
  H        35.0880270737       26.6166470085        4.6319954758
  H        36.6050634159       35.1340517997        8.1806160916
  H        16.1435841893        3.0130384321        3.9041972578
  H        14.9740127315        4.8564397236        2.6884823447
  H        17.3962528839        7.7473083317        4.7551249202
  H        18.5433047291        5.8933625298        5.9827220591
  H        16.7646760420        5.7555034012        1.2193131772
  H        36.2785223275       34.4826180157        6.2730708607
  H        36.3807506573       34.2092736167        9.4997046720
  H        40.5804581330       33.2027970381        5.1534855146
  H        17.4706745073        1.9474738932        7.9741459966
  H        29.0738447096       19.3103365169       12.5211406189
  H        29.8294216940       19.8508034424        3.6932890891
  H        30.4205896331       15.6156899000        3.8835410930
  H        31.2906099606       15.5884858223       12.5096747826
  H        28.1036462520       17.8462536310       14.5291837385
  H        29.4685913731       15.3783415516       14.4817708432
  H        31.6673447969       19.8691591672        1.4953821633
  H        33.2577908386       15.9385958450        1.4496216161
  H        28.8021673965       16.7631790439        1.4570236297
  H        32.3923021954       18.3480900451       15.5545838586
  H        18.8531229225        0.8687705509       12.3354272238
  H        40.5279368101       35.2289449257        3.9520022081
  H        42.3240664655       34.4187984938        3.5903764812
  H        22.0876293910        0.6924827641       12.3514453444
  H        11.5969723068       18.7131872664       12.3826178245
  H        52.2650705268       18.4312814924        3.6771981226
  H        49.2550947289       16.4770931862        3.5845361030
  H        10.1511443476       15.7981696039       12.2923151001
  H        50.8502996733       17.6925058772        3.9541879234
  H        10.0466285188       17.3945678772       12.0519263570
  H        20.2143402731        0.0021895244       12.0420595946
  H        39.1836490163       36.1244042352        3.6863199505
 Ni        30.6853934741       17.8740738257        2.8352274783
 Ni        31.2831512148       16.1031330919       -0.1670760971
 Ni        29.9384616780       18.6863327246        0.0817532852
 Ni        30.0942888339       17.3815473108       13.1580853859
  O        10.6499859434       14.3651380455        5.4858121721
  O        12.6132145324       14.6575010544        6.5838821912
  O        49.1480536990       16.8458687324        7.9897010947
  O        50.3503051838       20.9357779631        5.6480118979
  O        48.3485736707       20.5933119691        6.6658752908
  O        11.0518529756       17.0538624210        6.5007205461
  O        50.3210492205       20.8815971384       10.4068406935
  O        48.3467760494       20.5867800280        9.3271682364
  O        49.5438390030       18.2484565231       10.0682332578
  O        12.3591984031       18.6246933875        7.9996439723
  O        48.6932848948       14.1485437494        6.7513116624
  O         8.2099305002       14.2103833346        9.3225331670
  O        10.7354229271       14.5067657028       10.6643204995
  O        12.5718501803       14.5828017395        9.3285015148
  O        22.8444845468        2.0428300298        5.4872410340
  O        21.6056976596        3.5923757729        6.5895011809
  O        42.0582618112       34.1374894273        7.9790402015
  O        37.9818772166       33.1382357444        5.5725712588
  O        39.2185065787       31.5766032018        6.6670160998
  O        20.3084453113        1.0397197387        6.5020716240
  O        38.0248153208       33.1861143161       10.4150425745
  O        39.2193528093       31.5839971326        9.3262335070
  O        40.6522626325       33.7694367771       10.0602814183
  O        18.2553964080        1.3763585974        7.9967958445
  O        44.6222712794       35.1005512307        6.7587615836
  O        24.2054245744        0.0000338162        9.3208115201
  O        22.7529960694        2.0578068014       10.5838510816
  O        21.6244635139        3.5961535791        9.3427392471
  O        27.4928118922       18.7519194495        5.5020313716
  O        26.7670996331       16.9296004561        6.6568299796
  O        30.6682969429       19.4061447177        8.0690126998
  O        33.5773215364       16.2809452538        5.6581531075
  O        34.2756692055       18.1669137492        6.7336052824
  O        29.5764501313       17.0646913541        6.5759405534
  O        33.6153616990       16.3275120931       10.4115498421
  O        34.3053505200       18.2457876235        9.4062247695
  O        31.6546673432       18.3133000792       10.1518909979
  O        30.3253607667       15.1592763402        8.0796338080
  O        28.5541532787       21.0342525948        6.9040490216
  O        28.5133475489       20.9574597346        9.4127315084
  O        27.4549187936       18.6795113785       10.6584632399
  O        26.6938962016       16.9285661415        9.4133420052
  O        13.1489709797       18.6927674678       10.5875548257
  O        13.9192559374       16.9161672311        9.4049283286
  O        50.5964819295       19.3502706952        8.0204647710
  O        47.6836104986       16.3270402792       10.4173424928
  O        46.9521581275       18.1760143781        9.3243494563
  O        11.0699352390       17.0155288511        9.4896008342
  O        47.6759760205       16.3356036368        5.6530642670
  O        46.9274977223       18.2359441391        6.6648399758
  O        49.5688891083       18.3177202756        5.9822890053
  O        10.3187682724       15.1001098796        7.9971233296
  O        52.6707680645       21.0278578700        9.2418143958
  O        12.1468605389       20.8912216377        6.6732674114
  O        13.1084605279       18.6135893474        5.3256064247
  O        13.9570320148       16.9870182433        6.6655494642
  O        29.9939542813       14.4406298120       10.7251961477
  O        28.0888237158       14.6545475600        9.4924942476
  O        32.1382423634       16.8558210926        8.0750605155
  O        30.9644042284       20.9523166723       10.4101767108
  O        32.9462575115       20.6036622695        9.3405424661
  O        29.5671716812       17.0744639056        9.5727004763
  O        30.8756639530       20.9522029844        5.6654881145
  O        32.8800359592       20.5844442649        6.6669893209
  O        31.6856244082       18.2488911618        5.9970238254
  O        28.2860700396       18.6747969164        8.0795294058
  O        32.4935111582       14.2131637096        9.3307893697
  O        32.4040542268       14.2156431565        6.8220909111
  O        29.9165061744       14.4441506118        5.4818593366
  O        28.0413090986       14.5850707983        6.7510617860
  O        17.8892725320        1.9666649989       10.6627823429
  O        18.9562425544        3.5271666889        9.4079979416
  O        39.1687220773       34.1389197510        7.9972227612
  O        43.2802587887       33.0589582288       10.3318093243
  O        42.0345885077       31.5064509798        9.2416458743
  O        20.3176986392        1.0368184654        9.4801544168
  O        43.2761339185       33.1825576171        5.5748432603
  O        42.0052709360       31.5840792334        6.5829579518
  O        40.5790376309       33.7750610117        5.9359042177
  O        22.3673199087        1.3846967018        7.9979561018
  O        36.6727318827       35.0998353455        9.2332629330
  O        16.4455013580        0.0643712340        6.6682990690
  O        17.9365242817        2.0433936865        5.3263883749
  O        18.9190637738        3.5931507948        6.6659018655
  O        29.8220514874       18.9937585785        4.1587860655
  O        29.7907482617       18.8990970162       12.0003981551
  O        31.1477246357       16.2612328360        3.9871666265
  O        31.3018914046       16.4212731880       11.9951369969
  O        32.3708168803       16.3346295268        1.4979434897
  O        29.6887803850       17.1395922790        1.3282456174
  O        30.3034006692       15.8190316609       14.2536394212
  O        31.5917799110       17.9510306130       15.1711140799
  O        30.7870149389       19.4955485846        1.6564093072
  O        28.9417399509       18.3223756734       14.4142077571
  O        39.4567513015       35.2438113658        4.0019867473
  O        19.1410942609        0.0043718255       11.9905616982
  O        41.9694641820       35.1724767012        4.0871374718
  O        21.6913591154       -0.0691020895       11.8959351169
  O        51.3652351099       18.6143041273        4.0054178944
  O        10.7512064955       18.7471984371       11.9049648142
  O        50.0795097125       16.4128004520        4.0917743365
  O         9.5250282854       16.4829912468       11.9912009826
 Zr         9.2977240018       16.0527186899        6.1825666174
 Zr        49.8370571031       16.0066495063        9.7462981245
 Zr        22.0732617768        0.0299951823        6.1890553368
 Zr        42.4609818847       35.1537043122        9.8010538024
 Zr        29.5971667947       19.1003678776        6.2945340444
 Zr        29.5774886376       19.1726586019        9.8707662428
 Zr        11.0387437094       19.0518897619        9.8278242821
 Zr        11.0446250791       19.1548297806        6.2508191275
 Zr        31.3475134879       16.1032959273        9.8758173833
 Zr        31.3986519411       16.0222502096        6.2874224298
 Zr        18.6011021680       -0.0011205007        9.7632442069
 Zr        18.5064937185       -0.0074146816        6.2138368176
 Zr        12.3028863295       16.3235650467        7.9903544479
 Zr        48.6175792893       18.8333586783        8.0102169478
 Zr        20.3153173856        2.4736841715        7.9905612734
 Zr        40.6436888506       32.6873394990        7.9783402826
 Zr        28.3416072862       16.3459407737        8.0851075158
 Zr        32.6269072972       18.8427875355        8.0645536319
  H        31.9756940949       16.0176881322        2.3721535960
  H        31.0484168540       14.7165283396        0.1972720169
