     574
 i =      132, E =     -4778.8475037740
  C        11.8587427051       14.0535691564        5.7415483340
  C        12.4562875829       12.8906711061        5.0231928959
  C        11.7045542499       12.1715957779        4.0816838390
  C        12.2809668870       11.1094040214        3.3893436670
  C        13.6216057472       10.7397865850        3.6169703428
  C        14.3548461485       11.4435588149        4.5902249618
  C        13.7819273016       12.5085362141        5.2817079152
  C        14.2611364641        9.6490924052        2.8436156966
  C        14.2565028131        9.6570223540        1.4219205153
  C        13.7433767130       10.7591785325        0.6680329694
  C        49.1267996485       21.2332208189        5.8796536105
  C        48.5500666826       22.4012056188        5.1526281012
  C        49.3001115929       23.0685089584        4.1716326392
  C        48.7331919324       24.1076521541        3.4384309599
  C        47.4026592859       24.5093159861        3.6670585226
  C        46.6716980932       23.8604674628        4.6805816042
  C        47.2341390504       22.8155643856        5.4099407107
  C        46.7724112347       25.5869922603        2.8697727186
  C        46.7614472387       25.5573922108        1.4480104912
  C        47.2614442890       24.4423255229        0.7045187795
  C        14.8604144200        8.5706625619        0.7086694632
  C        14.8918680203        8.5971332264        3.5202795933
  C        49.1132516097       21.2034430405       10.1453519464
  C        48.5278972165       22.3648116775       10.8725233957
  C        49.2671650915       23.0255169194       11.8654135962
  C        48.6908618726       24.0600862415       12.5968757694
  C        47.3604584510       24.4568938827       12.3586457629
  C        46.6400060456       23.8119966013       11.3351438437
  C        47.2135362673       22.7760821594       10.6033555946
  C        46.7220265185       25.5318728046       13.1496687314
  C        46.7337395320       25.5282300970       14.5713713995
  C        47.2491941928       24.4290294029       15.3277580900
  C        40.6313716444       17.1210135961       15.3194316475
  C        40.6520237801       17.1512764971       12.5104515296
  C        11.8830149973       14.0865958222       10.2855108791
  C        12.4724519309       12.9109210662       10.9898885321
  C        11.7148848560       12.1775006501       11.9157769589
  C        12.2815261909       11.0950603658       12.5841760433
  C        13.6204351671       10.7215639408       12.3525153004
  C        14.3585115475       11.4374205819       11.3920197962
  C        13.7930307047       12.5185802970       10.7193508493
  C        14.2540305438        9.6247704279       13.1228821481
  C        14.2527284395        9.6447085609       14.5447162540
  C        13.7428828618       10.7536768471       15.2917798514
  C        22.5114026551        3.2447311691        5.7516070120
  C        23.2249277076        4.3496485672        5.0489643395
  C        24.2198072778        4.0681181019        4.1009222544
  C        24.8473884175        5.1063775673        3.4172113353
  C        24.4961568539        6.4491166610        3.6608429889
  C        23.5286477047        6.7221435314        4.6451611840
  C        22.8965013776        5.6855997099        5.3274200149
  C        25.1053054396        7.5543032792        2.8850922809
  C        25.0825539840        7.5466080395        1.4632211504
  C        24.3792882067        6.5491702129        0.7156628246
  C        38.3053777187       31.9310514031        5.8482017341
  C        37.5825288956       30.8412571766        5.1351155514
  C        36.6239116149       31.1430964636        4.1561734732
  C        36.0140142935       30.1210448023        3.4347722030
  C        36.3491200174       28.7737774625        3.6719612643
  C        37.2789362116       28.4793398624        4.6865632892
  C        37.8927561425       29.4998911677        5.4067403006
  C        35.7503750819       27.6806351548        2.8763794713
  C        35.7733218224       27.6969611611        1.4556243618
  C        36.4755994007       28.6999131104        0.7159015401
  C        25.7115949299        8.6138818370        0.7440975988
  C        25.7022786112        8.6291381504        3.5563150009
  C        38.3277653729       31.9625343826       10.1546062102
  C        37.6034540175       30.8896749997       10.8932867888
  C        36.6755886182       31.1988589892       11.8995096239
  C        36.0644030127       30.1803657028       12.6277993087
  C        36.3670565323       28.8278614733       12.3730452850
  C        37.2712491399       28.5286270378       11.3357269401
  C        37.8847018415       29.5436245059       10.6086804607
  C        35.7609268117       27.7293015187       13.1587365913
  C        35.7789334478       27.7217189261       14.5803144719
  C        36.4784321365       28.7116760215       15.3393734694
  C        46.1356741649       26.6208363351       15.2815027521
  C        46.0880644743       26.5802233251       12.4736099606
  C        22.4625699265        3.2560904125       10.2567770626
  C        23.1607823003        4.3643972569       10.9771205392
  C        24.1669427532        4.0769728006       11.9132225872
  C        24.7993118173        5.1061522755       12.6067582691
  C        24.4457420354        6.4525356926       12.3870453098
  C        23.4626802766        6.7333458788       11.4193094144
  C        22.8257751425        5.7043434023       10.7261055264
  C        25.0798247700        7.5491659322       13.1612339753
  C        25.0703923555        7.5431302372       14.5839336466
  C        24.3716643522        6.5486782960       15.3388097877
  C        26.6271645784       17.8645062686        5.7793919847
  C        25.3193716661       17.9052926327        5.0542880253
  C        25.0611011426       18.8925531833        4.0903861934
  C        23.8470500981       18.9101730829        3.4063141333
  C        22.8536225036       17.9432194202        3.6631676916
  C        23.1080210683       16.9786981207        4.6564963147
  C        24.3240278396       16.9560110772        5.3382819328
  C        21.5796530995       17.9253300224        2.8998809271
  C        21.5788968726       17.8974389782        1.4772955624
  C        22.7836498020       17.7675996240        0.7164352265
  C        34.4149998763       17.2233521635        5.8796655701
  C        35.7122880070       17.1602964526        5.1464244001
  C        35.9266197093       16.1808920522        4.1642463695
  C        37.1131596908       16.1602429543        3.4371356725
  C        38.1180388700       17.1186345112        3.6733234939
  C        37.9084188738       18.0761763075        4.6834673608
  C        36.7194281807       18.1011684226        5.4083825456
  C        39.3749955843       17.1244084449        2.8916831554
  C        39.3717259136       17.1385156143        1.4702662618
  C        38.1652871539       17.2624502176        0.7115284896
  C        20.3319886557       17.9159017188        0.7691908656
  C        20.3548272367       17.9323042499        3.5824227708
  C        34.4700622309       17.2428160793       10.1856500612
  C        35.7719130543       17.1649529225       10.9079084211
  C        35.9843804212       16.1807658074       11.8846668064
  C        37.1719950886       16.1588459502       12.6100559417
  C        38.1742076439       17.1205762229       12.3782244403
  C        37.9680234010       18.0795757092       11.3693131779
  C        36.7786283855       18.1065216468       10.6466343107
  C        39.4206242569       17.1377197349       13.1739688723
  C        39.3951953232       17.1465408091       14.5948823676
  C        38.1763516373       17.2648719954       15.3347388308
  C        35.1512209964       26.6426474851       15.2869050007
  C        35.1660332984       26.6600221726       12.4782892671
  C        26.5705743627       17.8275135750       10.3272498674
  C        25.2558567256       17.8698560434       11.0330265383
  C        24.9907281436       18.8709051031       11.9795726641
  C        23.7729006580       18.8924133334       12.6534169153
  C        22.7908230051       17.9129688558       12.4039063720
  C        23.0500242505       16.9372111894       11.4244653583
  C        24.2688185247       16.9133334923       10.7493101218
  C        21.5274636614       17.8909613712       13.1771519421
  C        21.5520210223       17.8782762128       14.5986518600
  C        22.7704725277       17.7584775438       15.3399408459
  C        14.0465369419       17.8280741408       10.2895075928
  C        15.3503060276       17.8826587027       11.0159250463
  C        15.6073190412       18.8828749287       11.9666197740
  C        16.8159985930       18.9006473662       12.6601815349
  C        17.8021024452       17.9210868863       12.4252816324
  C        17.5497774035       16.9452122372       11.4425158779
  C        16.3405805164       16.9227081541       10.7506560430
  C        19.0713434718       17.9011503540       13.1939295248
  C        19.0707366133       17.8961162179       14.6164103714
  C        17.8640977564       17.7979298448       15.3783041955
  C        46.8062940239       17.2189828876       10.1591041086
  C        45.5177631057       17.1582154346       10.9063539983
  C        45.3137312560       16.1815987151       11.8932815688
  C        44.1332142367       16.1644689625       12.6309984226
  C        43.1277884254       17.1241140103       12.4031348007
  C        43.3293248713       18.0806932959       11.3899392528
  C        44.5105096044       18.1017289210       10.6532632408
  C        41.8748952868       17.1352917730       13.1909736165
  C        41.8790335118       17.1335464987       14.6126957927
  C        43.0869147947       17.2275638346       15.3731651323
  C        20.3178337766       17.9051508319       15.3241515506
  C        20.2951983031       17.8820773442       12.5110095942
  C        46.7844807878       17.2310236071        5.8898563872
  C        45.4802435332       17.1245437062        5.1761293818
  C        45.2614429768       16.1269848014        4.2140340118
  C        44.0729283123       16.1006348656        3.4886044314
  C        43.0737689210       17.0686448502        3.7084027718
  C        43.2824356047       18.0351511854        4.7099126128
  C        44.4722167652       18.0680478538        5.4302282769
  C        41.8284934916       17.0928914262        2.9101191731
  C        41.8554482940       17.1104554509        1.4891847579
  C        43.0758668946       17.2140692015        0.7498791574
  C        46.1534039621       26.6372518545        0.7262577837
  C        46.1623910492       26.6560738180        3.5358956153
  C        14.0460810616       17.8317511041        5.7088256101
  C        15.3676762028       17.9054842545        5.0192456414
  C        15.6418427453       18.9184459434        4.0881456957
  C        16.8713478380       18.9540303137        3.4339966873
  C        17.8547358189       17.9758760002        3.6850180531
  C        17.5876202271       16.9924843557        4.6548608017
  C        16.3601413400       16.9562225702        5.3123859247
  C        19.1220181124       17.9477456303        2.9158926722
  C        19.0971987774       17.9188078868        1.4944824551
  C        17.8770428946       17.8081491957        0.7544937762
  C        28.8123773660       14.0849876623       10.3598492321
  C        28.2071117484       12.9126262193       11.0566653323
  C        28.9368324655       12.1729819005       11.9989809756
  C        28.3414740790       11.0996798595       12.6580887572
  C        27.0034062886       10.7407988304       12.3972303582
  C        26.2951145756       11.4618777363       11.4191292049
  C        26.8872343701       12.5362229419       10.7602293801
  C        26.3371944274        9.6594815071       13.1600824074
  C        26.3250690294        9.6841820645       14.5811381710
  C        26.8337688371       10.7941591726       15.3274458911
  C        32.1746545853       21.2423455256       10.1535374661
  C        32.7668735852       22.4090061747       10.8699114239
  C        32.0188988142       23.0855920037       11.8454000583
  C        32.5894284416       24.1262567130       12.5714817177
  C        33.9228047345       24.5163883982       12.3423244486
  C        34.6527152542       23.8589214684       11.3344058943
  C        34.0846992740       22.8132888211       10.6099914364
  C        34.5538516479       25.5907821156       13.1408449549
  C        34.5528534668       25.5605589438       14.5623007240
  C        34.0438136619       24.4465688567       15.3024923457
  C        25.7100022887        8.6085661063       15.2991922403
  C        25.6982245056        8.6102313390       12.4861024022
  C        32.1605389790       21.2690147434        5.9648585068
  C        32.7518744913       22.4033254302        5.1942097820
  C        31.9980179105       23.0694751787        4.2158426679
  C        32.5731825389       24.0821835532        3.4510937613
  C        33.9137442692       24.4634024634        3.6539993256
  C        34.6525281259       23.8094843602        4.6582902424
  C        34.0838544231       22.7860690079        5.4120503760
  C        34.5432200034       25.5437560962        2.8600211765
  C        34.5450012057       25.5378345103        1.4386197963
  C        34.0381935009       24.4367387511        0.6794894558
  C        40.6192286767       17.1129480999        0.7637438511
  C        40.5968036783       17.1184743235        3.5736951523
  C        28.7400678093       14.0661893268        5.8147676443
  C        28.1346791389       12.9210152391        5.0739195512
  C        28.8763193607       12.2147598957        4.1140152531
  C        28.2960679170       11.1590028672        3.4148327358
  C        26.9593701300       10.7805153096        3.6525437592
  C        26.2347920379       11.4739531184        4.6402748963
  C        26.8121482394       12.5317117487        5.3395357960
  C        26.3196150653        9.6890147040        2.8793711386
  C        26.3173603626        9.6998879579        1.4575633014
  C        26.8278327806       10.8029303553        0.7034092768
  C        18.1354222757        3.1810131452       10.3171636450
  C        17.4060801250        4.2782772841       11.0156997894
  C        16.3905263556        3.9999195299       11.9434018978
  C        15.7428207088        5.0399059958       12.6069073871
  C        16.0945818138        6.3836457095       12.3670727780
  C        17.0837320489        6.6531616910       11.4030603689
  C        17.7327942095        5.6158123016       10.7379904338
  C        15.4703393310        7.4913617225       13.1301489086
  C        15.4855976401        7.4906396137       14.5518646702
  C        16.1871242998        6.4970107452       15.3050480652
  C        42.9459909520       31.8595367198       10.0729551524
  C        43.6464027903       30.7719162701       10.8169011551
  C        44.5919981310       31.0932320315       11.8029142613
  C        45.1977064552       30.0876728723       12.5505558329
  C        44.8712305226       28.7346167588       12.3357107792
  C        43.9453303420       28.4202854724       11.3225703553
  C        43.3364993289       29.4254372174       10.5745617731
  C        45.4888119270       27.6553144672       13.1388890977
  C        45.4929440217       27.6809392316       14.5605769664
  C        44.8057376766       28.6889158423       15.3071834522
  C        14.8566997483        8.5631655870       15.2642396109
  C        14.8751391925        8.5631965999       12.4515751752
  C        42.9464330804       31.9615140068        5.8089926614
  C        43.6916568564       30.8854163604        5.0954853398
  C        44.6561873094       31.1913288681        4.1231237652
  C        45.2777260388       30.1717399424        3.4054228051
  C        44.9539769203       28.8214172991        3.6430781988
  C        44.0205502337       28.5237478553        4.6539070473
  C        43.3922763939       29.5405142483        5.3660686227
  C        45.5630514312       27.7240411357        2.8578378529
  C        45.5333476883       27.7173618032        1.4365415707
  C        44.8269558849       28.7075348498        0.6835775612
  C        35.1478072938       26.6303860307        0.7313888833
  C        35.1559443263       26.6021891045        3.5402112232
  C        18.1486181733        3.2470320589        5.7066404015
  C        17.4300021927        4.3438935502        4.9974232643
  C        16.4148893660        4.0526098456        4.0737466957
  C        15.7665815508        5.0832372089        3.3983539000
  C        16.1211419924        6.4284865411        3.6211689156
  C        17.1123790442        6.7118798924        4.5785754837
  C        17.7600499592        5.6829715923        5.2583507550
  C        15.4906760510        7.5241778148        2.8487028806
  C        15.4965992841        7.5075480938        1.4275681837
  C        16.1933196174        6.5058201743        0.6808628562
  H        10.6723728808       12.4656133534        3.9047844024
  H        11.6946737963       10.5507852380        2.6629135125
  H        15.3919686405       11.1691835416        4.7717663074
  H        14.3514705728       13.0720029151        6.0168959613
  H        13.3764026534       11.6313069060        1.2013663630
  H        50.3228135904       22.7484498368        3.9868868506
  H        49.3196891553       24.6229149094        2.6808608157
  H        45.6422169188       24.1612715622        4.8637616390
  H        46.6631270826       22.2903405240        6.1720456439
  H        47.6300081227       23.5759598929        1.2462026108
  H        14.8721932833        8.5884053927        4.6085863492
  H        50.2872090301       22.7026459233       12.0603068816
  H        49.2692875878       24.5755501724       13.3603484404
  H        45.6106088341       24.1092688492       11.1460888558
  H        46.6526925003       22.2539385916        9.8317972900
  H        47.6080158088       23.5519250719       14.7968658986
  H        40.6591384669       17.1197808154       11.4226314959
  H        48.6871645494       14.0950573737        7.8000571111
  H        10.6813260813       12.4663768348       12.0929862629
  H        11.6897059077       10.5244458196       13.2966724400
  H        15.3940593091       11.1598096976       11.2063244060
  H        14.3654650394       13.0882240925        9.9911081823
  H        13.3761307392       11.6223122984       14.7531242558
  H        47.9302009836       14.2187083038        9.7107287276
  H        47.7800926573       14.3743042823        6.4954082444
  H        49.0840876757       18.5526080808       10.8673991190
  H        10.4161631650       14.1343279595        7.9986516575
  H        24.4794316377        3.0291246358        3.9104354645
  H        25.6193748401        4.8869357635        2.6828289096
  H        23.2490701452        7.7554613304        4.8399398850
  H        22.1277746987        5.8877953259        6.0693010432
  H        23.8141799918        5.7945112965        1.2548942496
  H        36.3819310577       32.1855940130        3.9635175960
  H        35.2692919700       30.3563731755        2.6776618313
  H        37.5441530693       27.4411076281        4.8749978599
  H        38.6364040935       29.2826459270        6.1696988565
  H        37.0440092131       29.4487121244        1.2598339788
  H        25.7326586408        8.6139107868        4.6443188240
  H        36.4550270196       32.2432044992       12.1085014774
  H        35.3400589366       30.4248818166       13.4015895205
  H        37.5158277893       27.4881648915       11.1323918509
  H        38.6060688534       29.3181769196        9.8270736602
  H        37.0501494998       29.4690482390       14.8109142322
  H        46.1094577439       26.5876113586       11.3855742157
  H        44.6681489133       35.1161015332        7.8139523406
  H        24.4440195128        3.0383340517       12.0789856569
  H        25.5826517902        4.8759708906       13.3257917265
  H        23.1778344118        7.7682127866       11.2406078401
  H        22.0510012511        5.9185849549        9.9935281593
  H        23.8002384062        5.7940547299       14.8061178821
  H        44.9533310662       34.3899619996        9.6949262115
  H        44.9011941342       34.2066002435        6.4906324884
  H        40.6655130748       33.2088786899       10.8530831049
  H        23.1506069431        1.9578071308        8.0047398995
  H        25.8241887549       19.6414701845        3.8918284587
  H        23.6530815764       19.6823883880        2.6649296124
  H        22.3533197243       16.2230485198        4.8650004069
  H        24.5296924866       16.1977864538        6.0902354710
  H        23.7244677367       17.6452462512        1.2452642253
  H        35.1472116132       15.4440243364        3.9854469604
  H        37.2798534300       15.3939555014        2.6832055316
  H        38.6771890053       18.8232152942        4.8700105845
  H        36.5403574965       18.8548878931        6.1716847537
  H        37.2254165466       17.3888573335        1.2413213167
  H        20.3619734685       17.9776199407        4.6700874026
  H        35.1997025049       15.4518309167       12.0727853028
  H        37.3366977633       15.3934940738       13.3652674959
  H        38.7360687067       18.8283347420       11.1869338691
  H        36.5967691733       18.8645637283        9.8885529777
  H        37.2450353388       17.3915469534       14.7900777688
  H        35.1326197204       26.6861561477       11.3907688702
  H        28.4932991016       21.0866663266        7.9846377142
  H        25.7520281761       19.6240103324       12.1696573353
  H        23.5671535603       19.6723657017       13.3833361781
  H        22.2999172315       16.1744145336       11.2258809301
  H        24.4853349060       16.1480155325       10.0078408990
  H        23.7011452822       17.6294033099       14.7954729211
  H        29.0115539039       21.7192128756        9.7540152998
  H        29.1887445209       21.7329179688        6.6472711760
  H        32.0766359771       18.5393429060       10.9994777534
  H        27.3935901457       19.0759027889        8.1017302742
  H        14.8495028184       19.6421099436       12.1466889435
  H        17.0115126263       19.6826254929       13.3908068406
  H        18.3006125483       16.1811050486       11.2518725887
  H        16.1344478139       16.1558812930       10.0077330078
  H        16.9212637838       17.6823183949       14.8516212214
  H        46.0972114538       15.4496847870       12.0749773729
  H        43.9746235171       15.3994017964       13.3878171431
  H        42.5606545302       18.8295552775       11.2106371165
  H        44.6832798109       18.8542850350        9.8874946092
  H        44.0292331126       17.3425498758       14.8451309960
  H        20.2887271377       17.9148538254       11.4229632503
  H        46.0386915042       15.3873715742        4.0357507676
  H        43.9062258170       15.3271507381        2.7420675553
  H        42.5158672311       18.7868331564        4.8863064540
  H        44.6551427121       18.8337179369        6.1801279886
  H        44.0096772435       17.3175956095        1.2948265734
  H        46.1992178097       26.6826129332        4.6233415027
  H        52.7412659343       21.0626886732        8.1947151303
  H        14.8814741715       19.6715943569        3.8934630887
  H        17.0826660280       19.7423469951        2.7146781456
  H        18.3381747414       16.2310601077        4.8568704991
  H        16.1388253252       16.1837066895        6.0447814250
  H        16.9438799032       17.7003973774        1.2991675799
  H        52.3227383445       21.6733844098        6.2941394847
  H        52.0134138080       21.7021992797        9.4956968455
  H        49.0674400873       18.6077701492        5.2040507279
  H        13.2478115925       19.0160501231        7.9774594383
  H        29.9681065589       12.4536391138       12.2016984322
  H        28.9092751271       10.5258300848       13.3873492851
  H        25.2608602341       11.1956750175       11.2108718492
  H        26.3373839808       13.1144799962       10.0217482067
  H        27.2035388560       11.6604161851       14.7871939606
  H        30.9952954310       22.7693139604       12.0306315731
  H        32.0056694394       24.6506918539       13.3247825462
  H        35.6846500189       24.1522557514       11.1528909279
  H        34.6529488172       22.2792773680        9.8519475791
  H        33.6805866875       23.5800177353       14.7573646479
  H        25.7273082434        8.5921561199       11.3980465029
  H        30.9616897404       22.7752915454        4.0655963971
  H        31.9831265251       24.5997041179        2.6977007351
  H        35.6905251590       24.0937132644        4.8185260582
  H        34.6588156284       22.2573892191        6.1687397978
  H        33.6701185031       23.5632202463        1.2102794215
  H        40.5879833137       17.0803787882        4.6613542809
  H        32.5166140334       14.1515001668        8.2506943354
  H        29.9109095098       12.5000699096        3.9369626799
  H        28.8786813058       10.6078918131        2.6797798573
  H        25.2003957200       11.1947532692        4.8300593781
  H        26.2492337408       13.0828843366        6.0891609436
  H        27.1914435263       11.6766629116        1.2361646813
  H        33.2984314681       14.2116265591        6.4392923356
  H        33.4096758405       14.4118850538        9.5999119982
  H        32.0841347368       18.6148077242        5.1880055652
  H        30.2469899449       14.1950107022        8.0619473355
  H        16.1185759534        2.9634091617       12.1299357040
  H        14.9534774847        4.8205113200       13.3226805062
  H        17.3659921077        7.6860505288       11.2097615356
  H        18.5146247083        5.8184675304       10.0099218847
  H        16.7536448903        5.7396374114       14.7715594691
  H        44.8283063165       32.1403106461       11.9770790530
  H        45.9376005817       30.3413891415       13.3064842777
  H        43.6825362848       27.3782305086       11.1525224702
  H        42.5997823377       29.1900981909        9.8099965577
  H        44.2303114424       29.4366128068       14.7688576567
  H        14.8513942318        8.5464847223       11.3633536176
  H        44.8997042812       32.2340122823        3.9316610799
  H        46.0245929190       30.4129498739        2.6521426698
  H        43.7636191805       27.4840178478        4.8455055823
  H        42.6458466792       29.3177024493        6.1245772339
  H        44.2683146091       29.4703326523        1.2181488991
  H        35.1222434411       26.6126520801        4.6279526587
  H        36.6050094128       35.1340988897        8.1806457918
  H        16.1438629534        3.0130264909        3.9039657038
  H        14.9743218603        4.8563791096        2.6881999810
  H        17.3957582519        7.7473642200        4.7555780149
  H        18.5428000200        5.8934309317        5.9832481492
  H        16.7647128694        5.7555477236        1.2192970676
  H        36.2784196696       34.4826274473        6.2732768508
  H        36.3807161781       34.2093123513        9.4998059966
  H        40.5809428130       33.2032038371        5.1535495098
  H        17.4707501353        1.9475458032        7.9742214581
  H        29.1150865597       19.2949382602       12.5085928396
  H        29.2488441666       19.7040256872        3.7826282576
  H        30.3846664996       15.6353661754        3.9455315984
  H        31.2747932243       15.5821677286       12.5103443519
  H        28.3381659265       17.6724685330       14.6654880801
  H        29.5118695384       15.4086556121       14.4872607682
  H        30.7365515002       19.9172430115        2.0202651311
  H        33.1094025507       15.5471685143        1.6422635582
  H        29.3765136567       15.8360802835        2.0009303101
  H        32.2138494839       18.3493920694       16.1364824885
  H        18.8534691914        0.8688989533       12.3354172918
  H        40.5278191873       35.2291719409        3.9520237725
  H        42.3240861477       34.4188857479        3.5905868219
  H        22.0878711652        0.6921888049       12.3517384993
  H        11.5972846327       18.7125771891       12.3822924118
  H        52.2650937072       18.4311387568        3.6774307772
  H        49.2549106106       16.4773199149        3.5846788098
  H        10.1496698249       15.7982642299       12.2930895067
  H        50.8502219895       17.6925314075        3.9542434470
  H        10.0459179758       17.3944904738       12.0519551989
  H        20.2146873849        0.0022315219       12.0420741154
  H        39.1835435896       36.1244343409        3.6863216037
 Ni        30.2280569637       17.8362066702        2.9982725077
 Ni        31.2429699938       16.1345834347       -0.0009213913
 Ni        29.8811326117       18.7750615101       -0.0006510155
 Ni        30.0959521750       17.3758285343       13.1587583251
  O        10.6499243018       14.3651242936        5.4858249000
  O        12.6131668072       14.6575148671        6.5838880541
  O        49.1479788387       16.8459141242        7.9896710223
  O        50.3501989904       20.9358644390        5.6480388676
  O        48.3485222609       20.5933348666        6.6659282560
  O        11.0516431331       17.0539105289        6.5006974596
  O        50.3210269716       20.8816414505       10.4068486578
  O        48.3467706540       20.5867583419        9.3271208691
  O        49.5438172087       18.2484576715       10.0681943742
  O        12.3591590467       18.6246801028        7.9996841916
  O        48.6932067549       14.1486203247        6.7512816509
  O         8.2099273595       14.2103388205        9.3224884903
  O        10.7353651835       14.5067618517       10.6643703527
  O        12.5718219819       14.5828215475        9.3285028802
  O        22.8447000016        2.0434876490        5.4869073482
  O        21.6060380010        3.5927966532        6.5891696299
  O        42.0583262567       34.1375008771        7.9790928945
  O        37.9821419529       33.1389889653        5.5728940111
  O        39.2189639554       31.5770007185        6.6675774975
  O        20.3085052859        1.0399225388        6.5021375436
  O        38.0248486514       33.1863010280       10.4148616824
  O        39.2193854697       31.5840165519        9.3262195226
  O        40.6523578492       33.7694492005       10.0603741784
  O        18.2554333227        1.3763706552        7.9968236240
  O        44.6222218755       35.1005448874        6.7587386138
  O        24.2054160117        0.0000236212        9.3208227292
  O        22.7532609784        2.0580110159       10.5839292013
  O        21.6248074121        3.5965471598        9.3432490464
  O        27.5023607287       18.7541988772        5.4954788604
  O        26.7662642642       16.9355583003        6.6528126906
  O        30.6739737271       19.4064112511        8.0889899107
  O        33.5318464070       16.3419284776        5.5812342669
  O        34.2751797910       18.1630412924        6.7332707552
  O        29.5696959084       17.0707908994        6.5856199560
  O        33.6078482390       16.3270397525       10.4132696134
  O        34.3056187835       18.2437848248        9.4071306324
  O        31.6584011425       18.3113346253       10.1517160756
  O        30.3259770797       15.1628415797        8.0771005224
  O        28.5507272357       21.0416680061        6.9085630102
  O        28.5135200648       20.9565027390        9.4132464875
  O        27.4565175493       18.6799810574       10.6594810479
  O        26.6936734662       16.9299095089        9.4140724093
  O        13.1489630737       18.6927914743       10.5875621703
  O        13.9192583850       16.9161609080        9.4049154625
  O        50.5963053727       19.3502412071        8.0203669895
  O        47.6840540324       16.3267612011       10.4171148764
  O        46.9519371743       18.1757920491        9.3245655943
  O        11.0698828936       17.0155147039        9.4896283440
  O        47.6750442113       16.3356999460        5.6530669752
  O        46.9267625289       18.2360615030        6.6644992928
  O        49.5686617041       18.3177293629        5.9822099694
  O        10.3186882950       15.1001631221        7.9970445124
  O        52.6707683447       21.0278766001        9.2418231327
  O        12.1468394459       20.8912148159        6.6732449900
  O        13.1085161018       18.6135541691        5.3255397343
  O        13.9571872667       16.9870508711        6.6654952386
  O        30.0025153832       14.4330219706       10.6629338880
  O        28.0788422497       14.6570993163        9.4834587368
  O        32.1388285723       16.8642499221        8.0713849875
  O        30.9610152975       20.9501351428       10.4129722829
  O        32.9442297275       20.6073982360        9.3460503950
  O        29.5663366861       17.0746849567        9.5700094996
  O        30.9156692580       21.0366653031        5.8324079381
  O        32.9665832520       20.5790318912        6.6799140738
  O        31.6558679890       18.3076233771        6.0035863530
  O        28.2783883545       18.6764694271        8.0860824956
  O        32.4946057349       14.2136002713        9.3266040747
  O        32.4035495046       14.2246560113        6.8172870268
  O        29.9185080330       14.4430429721        5.4819374394
  O        28.0418752009       14.5847117099        6.7491289468
  O        17.8892475644        1.9666897267       10.6628164341
  O        18.9562915505        3.5271686132        9.4079755227
  O        39.1687329054       34.1390100140        7.9972807734
  O        43.2802804883       33.0590244842       10.3317176871
  O        42.0346746043       31.5064526060        9.2416686777
  O        20.3177489973        1.0368424721        9.4801149228
  O        43.2760686407       33.1825427042        5.5749221433
  O        42.0052867037       31.5840814682        6.5830123233
  O        40.5792523904       33.7753332550        5.9360702579
  O        22.3673664750        1.3847587181        7.9979576590
  O        36.6727404324       35.0998463968        9.2332781033
  O        16.4455003873        0.0644001314        6.6683360899
  O        17.9364908556        2.0434552505        5.3263935463
  O        18.9191547948        3.5931563513        6.6659529285
  O        29.9458446792       19.2067940963        4.2508259525
  O        29.8190197630       18.8470116583       11.9991508942
  O        30.9671557775       16.4102157309        4.0828863878
  O        31.2338717464       16.4119371888       11.9932913323
  O        32.5395837530       16.3321448331        1.5801100787
  O        29.8221364015       16.6277803076        1.6478265078
  O        30.3379673716       15.8946192353       14.3294567392
  O        31.5521233745       18.0188738416       15.4992268474
  O        30.0709184999       19.2633945260        1.7423308432
  O        29.0199417324       18.3165320066       14.3952573072
  O        39.4567704885       35.2438763069        4.0019661977
  O        19.1414607667        0.0045148019       11.9905621091
  O        41.9696081210       35.1727144845        4.0872179673
  O        21.6914743824       -0.0691993655       11.8960473726
  O        51.3652049391       18.6143015578        4.0054081837
  O        10.7513920556       18.7470804013       11.9049117411
  O        50.0794193376       16.4127785441        4.0917676923
  O         9.5240008647       16.4831539294       11.9912327983
 Zr         9.2971561624       16.0528772295        6.1824738126
 Zr        49.8368285812       16.0066854440        9.7462841837
 Zr        22.0731142062        0.0298306557        6.1891720150
 Zr        42.4608479309       35.1534549147        9.8010580013
 Zr        29.6062380680       19.1243505325        6.3526100320
 Zr        29.5793728325       19.1669163938        9.8762784916
 Zr        11.0384719691       19.0519238761        9.8277820857
 Zr        11.0443304932       19.1548377359        6.2509253443
 Zr        31.3463066350       16.1030409203        9.8645272739
 Zr        31.3859906053       16.0521401647        6.2989166900
 Zr        18.6010264246       -0.0013917901        9.7633459961
 Zr        18.5063479776       -0.0075058327        6.2139034897
 Zr        12.3026069523       16.3237081849        7.9902490700
 Zr        48.6169518092       18.8332547436        8.0101277583
 Zr        20.3152713757        2.4735115865        7.9906713896
 Zr        40.6435478700       32.6870997789        7.9785884745
 Zr        28.3360940894       16.3450835488        8.0831245751
 Zr        32.6458442505       18.8561694173        8.0659300844
  H        31.9900329177       16.3332769280        2.4165660972
  H        31.1609377996       14.6948972988        0.2160521642
