     570
 i =      336, E =     -4745.5248375610
  C        11.8587188512       14.0534407265        5.7416035435
  C        12.4562102471       12.8904560862        5.0233820221
  C        11.7046162252       12.1717127427        4.0815016762
  C        12.2810284062       11.1095525157        3.3891125329
  C        13.6215256425       10.7395763987        3.6170442164
  C        14.3545758368       11.4429789591        4.5907309998
  C        13.7816616923       12.5079063003        5.2822891654
  C        14.2611326836        9.6490091915        2.8435846001
  C        14.2564602414        9.6569425445        1.4218863091
  C        13.7432912585       10.7590652639        0.6679813933
  C        49.1268356028       21.2332913434        5.8796652986
  C        48.5501317394       22.4012153776        5.1525870666
  C        49.3002157273       23.0686242529        4.1716801160
  C        48.7332708729       24.1077295063        3.4384420759
  C        47.4027247096       24.5093799796        3.6670634279
  C        46.6716980705       23.8603860657        4.6804535011
  C        47.2341652795       22.8155207806        5.4098426538
  C        46.7724477483       25.5870415027        2.8697628092
  C        46.7615752112       25.5574825647        1.4479964646
  C        47.2615036284       24.4423938671        0.7044873830
  C        14.8604466838        8.5706225846        0.7086321038
  C        14.8918622301        8.5970278975        3.5202343191
  C        49.1133194320       21.2035245337       10.1453889898
  C        48.5280015441       22.3648700511       10.8725597975
  C        49.2672548468       23.0256627197       11.8654124844
  C        48.6909087127       24.0602183632       12.5968544337
  C        47.3604816892       24.4569622026       12.3586283713
  C        46.6400634594       23.8120162451       11.3351359169
  C        47.2136227949       22.7761106938       10.6033691278
  C        46.7220311379       25.5319317199       13.1496431505
  C        46.7338074790       25.5283138081       14.5713428201
  C        47.2492419138       24.4291018746       15.3277259188
  C        40.6351681995       17.1407349960       15.3210640212
  C        40.6518167099       17.1771370110       12.5123200000
  C        11.8829501100       14.0865154261       10.2855245188
  C        12.4722789404       12.9106977750       10.9897166308
  C        11.7148379792       12.1776041221       11.9159751796
  C        12.2814216068       11.0951364557       12.5843755134
  C        13.6201867240       10.7212767630       12.3524057658
  C        14.3580625563       11.4367054769       11.3914156729
  C        13.7926356422       12.5178847848       10.7187420284
  C        14.2538461256        9.6245550659       13.1228106407
  C        14.2526082155        9.6445699232       14.5446512771
  C        13.7427460322       10.7535281622       15.2917263174
  C        22.5114558799        3.2444578579        5.7529346361
  C        23.2248988359        4.3503736759        5.0530887237
  C        24.2178093565        4.0715674296        4.1022916494
  C        24.8432065805        5.1121735913        3.4202512846
  C        24.4915767547        6.4537030969        3.6692351325
  C        23.5270453564        6.7239147060        4.6569975110
  C        22.8967760851        5.6851891997        5.3371360008
  C        25.0945667886        7.5620761363        2.8940205839
  C        25.0580382431        7.5604133507        1.4726471790
  C        24.3526993107        6.5633262579        0.7265260624
  C        38.2990775276       31.9284749621        5.8514520328
  C        37.5602700259       30.8398640678        5.1484612625
  C        36.5986368412       31.1462933147        4.1732288773
  C        35.9718019587       30.1278451353        3.4604455273
  C        36.2913013232       28.7770008892        3.7003024122
  C        37.2220212202       28.4780792104        4.7132702737
  C        37.8531431637       29.4954216967        5.4250619923
  C        35.6843755756       27.6874252555        2.9016796883
  C        35.7283291399       27.6988162650        1.4802181638
  C        36.4420975601       28.6982839552        0.7463308758
  C        25.6762725483        8.6333049000        0.7532339961
  C        25.6982143743        8.6329696157        3.5652023006
  C        38.3304275884       31.9604226436       10.1597918912
  C        37.6148182293       30.8859777974       10.9077851440
  C        36.6838503143       31.1926953157       11.9122452186
  C        36.0771016926       30.1735528928       12.6444554848
  C        36.3861408346       28.8208124919       12.3966774112
  C        37.2969906782       28.5240496824       11.3640369560
  C        37.9057320246       29.5396535433       10.6330917813
  C        35.7758634311       27.7205633390       13.1794145210
  C        35.7752308623       27.7156668298       14.6020091447
  C        36.4632173200       28.7072926847       15.3696347798
  C        46.1357461122       26.6209185439       15.2814823057
  C        46.0880105779       26.5802586617       12.4735920233
  C        22.4598710154        3.2570290711       10.2583600923
  C        23.1501904897        4.3683903106       10.9817616052
  C        24.1497599502        4.0873415521       11.9267821621
  C        24.7728313359        5.1209081679       12.6225298417
  C        24.4171875767        6.4657897857       12.3958751182
  C        23.4409218593        6.7399926657       11.4192628851
  C        22.8129398842        5.7067379060       10.7243710866
  C        25.0429231317        7.5672712315       13.1703920899
  C        25.0314596665        7.5629054115       14.5933668536
  C        24.3382900576        6.5655226364       15.3495967360
  C        26.6167310632       17.8590029476        5.7814184684
  C        25.3098617518       17.9047057791        5.0583448362
  C        25.0409239843       18.9096585833        4.1152122950
  C        23.8288782973       18.9255779531        3.4275562690
  C        22.8469455082       17.9420600191        3.6641048101
  C        23.1107732829       16.9606528151        4.6382135240
  C        24.3258874216       16.9376260654        5.3213482314
  C        21.5740632896       17.9264629870        2.8991363388
  C        21.5763910056       17.9072588528        1.4767850037
  C        22.7833239074       17.7860586789        0.7183718659
  C        34.4455505221       17.1861096471        5.9117500822
  C        35.7402791843       17.1320940476        5.1750859263
  C        35.9517175135       16.1591897814        4.1859308088
  C        37.1314264634       16.1513012511        3.4478396527
  C        38.1322216858       17.1136796037        3.6824292111
  C        37.9261259339       18.0646359098        4.6995361597
  C        36.7424842821       18.0794783844        5.4328441377
  C        39.3848988600       17.1281813144        2.8950748852
  C        39.3788922836       17.1476834248        1.4738679266
  C        38.1707140284       17.2705782007        0.7181067140
  C        20.3308949479       17.9247443266        0.7664279577
  C        20.3488467819       17.9276064188        3.5802294260
  C        34.4781310352       17.2478599343       10.1769057994
  C        35.7759965173       17.1791961697       10.9072692844
  C        35.9919689781       16.1938590437       11.8821680570
  C        37.1775146745       16.1773455391       12.6110562026
  C        38.1745747935       17.1454299196       12.3836930404
  C        37.9645978218       18.1068204935       11.3778558213
  C        36.7771031906       18.1283700763       10.6518839698
  C        39.4216452790       17.1631536864       13.1780778935
  C        39.3978217178       17.1675757757       14.5988584661
  C        38.1799262491       17.2793105071       15.3412544291
  C        35.1387211513       26.6379817519       15.3035972084
  C        35.1904188837       26.6481352347       12.4939134711
  C        26.5794756631       17.8284647816       10.3272323101
  C        25.2657642506       17.8696684209       11.0376321416
  C        25.0018313271       18.8734095599       11.9819154737
  C        23.7828954030       18.8991787247       12.6543523644
  C        22.7987339951       17.9213371794       12.4061336792
  C        23.0581296966       16.9414586478       11.4308416632
  C        24.2776384747       16.9134483134       10.7568943936
  C        21.5333121413       17.9031430130       13.1766542215
  C        21.5551951938       17.8926485581       14.5981940003
  C        22.7727288214       17.7781860850       15.3419565461
  C        14.0476059620       17.8289472118       10.2886514985
  C        15.3531677349       17.8860567552       11.0129714464
  C        15.6108954353       18.8883428343       11.9613114852
  C        16.8206339944       18.9086184719       12.6532242994
  C        17.8074839844       17.9295733249       12.4190924262
  C        17.5547271096       16.9518902929       11.4382218067
  C        16.3443574716       16.9269150137       10.7480767627
  C        19.0765903718       17.9111417217       13.1887920955
  C        19.0736728363       17.9058010453       14.6113937956
  C        17.8658153427       17.8057643820       15.3712851877
  C        46.8062337616       17.2199520246       10.1592161643
  C        45.5177367581       17.1630470118       10.9062288077
  C        45.3103977244       16.1891314386       11.8950551979
  C        44.1297202331       16.1779217259       12.6325902493
  C        43.1277425529       17.1407644868       12.4025259331
  C        43.3323774907       18.0941919310       11.3871442333
  C        44.5136218647       18.1093536400       10.6507017952
  C        41.8756282656       17.1578209084       13.1910136902
  C        41.8817441860       17.1550919598       14.6125477262
  C        43.0910140853       17.2478548513       15.3709705081
  C        20.3195331595       17.9164683900       15.3213769148
  C        20.3019737468       17.8927079826       12.5082939387
  C        46.7869351578       17.2310649811        5.8900450975
  C        45.4845759293       17.1260978422        5.1752087202
  C        45.2678903395       16.1309135262        4.2103943093
  C        44.0806959927       16.1069676398        3.4832987282
  C        43.0823335805       17.0749758182        3.7052263071
  C        43.2888881855       18.0390542094        4.7092500246
  C        44.4772941138       18.0696918211        5.4310769691
  C        41.8374657611       17.1009282618        2.9082476781
  C        41.8625973162       17.1234501652        1.4878817798
  C        43.0820030630       17.2305234812        0.7475770971
  C        46.1535067732       26.6373302557        0.7262417036
  C        46.1624540895       26.6561523712        3.5358812728
  C        14.0447641664       17.8306139899        5.7081176902
  C        15.3649411781       17.9022503657        5.0158147498
  C        15.6390074199       18.9165985060        4.0863639982
  C        16.8676831335       18.9518181785        3.4308663577
  C        17.8496355805       17.9717387526        3.6792738401
  C        17.5821629126       16.9858015425        4.6463369179
  C        16.3555184032       16.9500998576        5.3052623979
  C        19.1173453897       17.9460926159        2.9114170942
  C        19.0950218015       17.9230539656        1.4898839857
  C        17.8761960835       17.8135205959        0.7475784288
  C        28.8137485310       14.0965409405       10.3925907202
  C        28.1943054487       12.9285488201       11.0848320746
  C        28.9052203355       12.1975879798       12.0481529614
  C        28.2994330213       11.1253860918       12.6987608856
  C        26.9682985855       10.7601904231       12.4110414244
  C        26.2794588025       11.4726687169       11.4130904476
  C        26.8828295320       12.5447748017       10.7608260977
  C        26.2927827884        9.6823284563       13.1694880681
  C        26.2733833689        9.7111688374       14.5904529599
  C        26.7695465511       10.8268191277       15.3369983983
  C        32.1847437828       21.2378197763       10.1434909272
  C        32.7818526522       22.3984490237       10.8689050471
  C        32.0328876685       23.0815429109       11.8397565429
  C        32.6054636490       24.1192210373       12.5693829720
  C        33.9425876835       24.5034661805       12.3492495870
  C        34.6742749067       23.8387387946       11.3469769846
  C        34.1044539881       22.7951950956       10.6197122268
  C        34.5708568143       25.5790556051       13.1510176814
  C        34.5532040574       25.5525983826       14.5728694194
  C        34.0398852714       24.4385531892       15.3095427686
  C        25.6664184298        8.6314044046       15.3084564547
  C        25.6603817954        8.6291476761       12.4951387334
  C        32.0801824307       21.2058632830        5.8738194732
  C        32.6501290026       22.3716556712        5.1373172700
  C        31.9212594774       23.0143717969        4.1247978600
  C        32.4969031403       24.0522430768        3.3940297229
  C        33.8151324766       24.4764848386        3.6550616071
  C        34.5240306080       23.8482593670        4.6973761588
  C        33.9539536187       22.8070367060        5.4239461841
  C        34.4601399186       25.5572668942        2.8726742107
  C        34.4948944034       25.5421121659        1.4504819316
  C        34.0105953816       24.4340016406        0.6862288467
  C        40.6251683893       17.1273569162        0.7650070146
  C        40.6076755443       17.1223182412        3.5744524749
  C        28.7491224392       14.0696962940        5.8158170042
  C        28.1396816345       12.9226191070        5.0795121173
  C        28.8640138703       12.2390099259        4.0911066116
  C        28.2790720829       11.1839507825        3.3947498449
  C        26.9531686868       10.7860369519        3.6607202170
  C        26.2467685261       11.4568757107        4.6767143272
  C        26.8299446895       12.5121295357        5.3749399708
  C        26.3047692287        9.6992534328        2.8883362621
  C        26.2822945435        9.7193229379        1.4666332629
  C        26.7724310448       10.8318269590        0.7129939261
  C        18.1354210600        3.1808350701       10.3171703254
  C        17.4061809519        4.2781153291       11.0158737981
  C        16.3902895270        3.9998129563       11.9432119470
  C        15.7425827911        5.0398221044       12.6067006846
  C        16.0946410800        6.3835142293       12.3670943737
  C        17.0842458736        6.6530003170       11.4035530473
  C        17.7333037131        5.6156176256       10.7385267655
  C        15.4703440594        7.4912525983       13.1301258452
  C        15.4856229909        7.4905855405       14.5518395911
  C        16.1872099191        6.4969944690       15.3050162013
  C        42.9458532132       31.8595609608       10.0728672328
  C        43.6462571659       30.7718980411       10.8168180854
  C        44.5918551244       31.0932367765       11.8028158808
  C        45.1975588004       30.0877003083       12.5504976289
  C        44.8711253134       28.7346354455       12.3356733529
  C        43.9452443164       28.4202807552       11.3225209058
  C        43.3364359112       29.4254080899       10.5744538321
  C        45.4887789341       27.6553720355       13.1388632229
  C        45.4930148814       27.6810330140       14.5605582770
  C        44.8058868983       28.6890535448       15.3071774927
  C        14.8566839914        8.5630969340       15.2641991797
  C        14.8749973998        8.5629752780       12.4515273505
  C        42.9464504860       31.9615902497        5.8089857453
  C        43.6916508482       30.8854641388        5.0954649141
  C        44.6564267093       31.1913841228        4.1233442003
  C        45.2779938181       30.1718022480        3.4056440093
  C        44.9540017487       28.8214962786        3.6430603873
  C        44.0202099572       28.5238155893        4.6535454631
  C        43.3919000032       29.5405760672        5.3656954042
  C        45.5631268722       27.7241257811        2.8578233875
  C        45.5335231353       27.7174835621        1.4365241429
  C        44.8271814138       28.7077043024        0.6835716272
  C        35.1115802406       26.6311802498        0.7489189175
  C        35.0671710507       26.6170100364        3.5588589655
  C        18.1485837941        3.2469259660        5.7066313461
  C        17.4300053559        4.3437837876        4.9973079644
  C        16.4146553305        4.0525487379        4.0738897931
  C        15.7663802202        5.0832014632        3.3984826017
  C        16.1212209640        6.4284035262        3.6210904973
  C        17.1127537399        6.7117606365        4.5781849202
  C        17.7603902616        5.6828254405        5.2579560879
  C        15.4907433095        7.5241272621        2.8486598031
  C        15.4966563039        7.5075177715        1.4275276175
  C        16.1934112210        6.5058094038        0.6808308455
  H        10.6725256125       12.4659226510        3.9043817661
  H        11.6947885082       10.5511863091        2.6624446329
  H        15.3915406702       11.1682423797        4.7726264297
  H        14.3510262356       13.0709585454        6.0179337348
  H        13.3762489421       11.6311795015        1.2012821784
  H        50.3229367420       22.7486106314        3.9869646116
  H        49.3197883615       24.6230614191        2.6809328536
  H        45.6421811068       24.1611148328        4.8635612294
  H        46.6630817587       22.2902244950        6.1718423549
  H        47.6300209540       23.5760041127        1.2461718523
  H        14.8721879926        8.5882233043        4.6085389562
  H        50.2873124857       22.7028371228       12.0603011104
  H        49.2692991728       24.5756991739       13.3603390054
  H        45.6106486303       24.1092336151       11.1461073078
  H        46.6527600574       22.2539308575        9.8318504705
  H        47.6079917757       23.5519666644       14.7968387356
  H        40.6570360345       17.1466615056       11.4244565217
  H        48.6870603635       14.0948529415        7.7999942841
  H        10.6814007589       12.4667340511       12.0934809333
  H        11.6896649403       10.5247885753       13.2971420319
  H        15.3934433926       11.1587129376       11.2053441141
  H        14.3649315304       13.0871782634        9.9901187939
  H        13.3758791264       11.6221264700       14.7530879065
  H        47.9301925302       14.2181347143        9.7109406361
  H        47.7801088536       14.3735921163        6.4952291998
  H        49.0844956667       18.5527099068       10.8674572052
  H        10.4160846046       14.1342675241        7.9987917257
  H        24.4769971421        3.0331666479        3.9080319587
  H        25.6130550063        4.8957898534        2.6827217353
  H        23.2482930436        7.7567180808        4.8555168142
  H        22.1296732579        5.8844379999        6.0814355172
  H        23.7930075131        5.8055136300        1.2669953489
  H        36.3675497007       32.1903242441        3.9754397545
  H        35.2270647958       30.3698978286        2.7053853254
  H        37.4763346219       27.4379531794        4.9065398227
  H        38.5976130196       29.2714015357        6.1854345920
  H        37.0035383366       29.4486110332        1.2953390975
  H        25.7421548255        8.6098934243        4.6525898559
  H        36.4552827201       32.2363514430       12.1162795828
  H        35.3490114277       30.4185278827       13.4146110888
  H        37.5493239989       27.4845048745       11.1654020938
  H        38.6301558382       29.3138883152        9.8543397990
  H        37.0415974573       29.4643288299       14.8477692422
  H        46.1093699297       26.5876265813       11.3855531616
  H        44.6682350003       35.1161961656        7.8139602882
  H        24.4293310049        3.0502399736       12.0980485754
  H        25.5514062369        4.8952889246       13.3481397534
  H        23.1542802303        7.7733204942       11.2346216682
  H        22.0433134595        5.9163028055        9.9850883855
  H        23.7670071662        5.8098578897       14.8182148567
  H        44.9538049452       34.3906269361        9.6954568256
  H        44.9017628882       34.2068068151        6.4906765739
  H        40.6662119979       33.2090740347       10.8531661928
  H        23.1501892123        1.9580453524        8.0055059301
  H        25.7901547837       19.6781734211        3.9386313219
  H        23.6263865455       19.7103325670        2.7017081386
  H        22.3643605314       16.1924056666        4.8298114190
  H        24.5405815295       16.1654122601        6.0564201909
  H        23.7234923512       17.6680915868        1.2492946451
  H        35.1749128019       15.4208305779        4.0034615257
  H        37.2939208072       15.3920792370        2.6859408204
  H        38.6924388240       18.8146263142        4.8841732838
  H        36.5646229866       18.8296003346        6.1998392201
  H        37.2310878425       17.3896510725        1.2501365350
  H        20.3540828077       17.9662460784        4.6681491092
  H        35.2128680376       15.4574825460       12.0642422904
  H        37.3451967794       15.4106256517       13.3642550138
  H        38.7291020114       18.8600894126       11.1991445037
  H        36.5927200049       18.8865085111        9.8944761202
  H        37.2471101475       17.4040824348       14.7988927599
  H        35.1693781566       26.6729150603       11.4060192628
  H        28.5001001594       21.0860687985        7.8799159336
  H        25.7639872362       19.6265388483       12.1695321680
  H        23.5778889964       19.6824521431       13.3809873858
  H        22.3070895103       16.1791357699       11.2338503248
  H        24.4932246486       16.1457498137       10.0176023304
  H        23.7049839374       17.6546954719       14.7990740387
  H        28.9903661237       21.7269935334        9.7521795905
  H        29.1846642788       21.7217719679        6.5580479734
  H        32.1443088310       18.5629336981       10.9050804194
  H        27.4086829351       19.0743099858        8.0833585347
  H        14.8525764469       19.6471124366       12.1412919523
  H        17.0160361157       19.6921214318       13.3822619806
  H        18.3057661687       16.1878892188       11.2478922422
  H        16.1380716252       16.1583816784       10.0069268891
  H        16.9239736413       17.6902714661       14.8427970251
  H        46.0913512254       15.4549217245       12.0784698702
  H        43.9681910557       15.4152248243       13.3911605216
  H        42.5662925576       18.8452658282       11.2060787504
  H        44.6892507435       18.8595876595        9.8833550818
  H        44.0323273889       17.3647058632       14.8415978131
  H        20.2974990907       17.9240096111       11.4201782879
  H        46.0455068169       15.3918073188        4.0317802917
  H        43.9139959021       15.3358470669        2.7343383579
  H        42.5216977580       18.7899536514        4.8861091047
  H        44.6601192924       18.8330925745        6.1832401808
  H        44.0163955539       17.3330818933        1.2917504920
  H        46.1991802991       26.6826444935        4.6233338044
  H        52.7411574766       21.0626075113        8.1947049937
  H        14.8794354458       19.6712894773        3.8946072990
  H        17.0797230884       19.7415785710        2.7133533020
  H        18.3316875961       16.2225894481        4.8453845095
  H        16.1334359173       16.1763174683        6.0360918166
  H        16.9421753171       17.7039023157        1.2904311552
  H        52.3223950288       21.6732556408        6.2943171266
  H        52.0131128595       21.7019178114        9.4957077642
  H        49.0677341762       18.6080079634        5.2041770848
  H        13.2475962514       19.0162813629        7.9772001218
  H        29.9301504116       12.4841744245       12.2731022897
  H        28.8530282923       10.5573438306       13.4432723782
  H        25.2510385963       11.2015880356       11.1832596185
  H        26.3480131561       13.1153248666       10.0055941805
  H        27.1248114037       11.6993045370       14.7972152834
  H        31.0047460714       22.7753974351       12.0171184877
  H        32.0190110375       24.6472953950       13.3180915564
  H        35.7091323037       24.1251139721       11.1707731662
  H        34.6754907108       22.2577383397        9.8661131061
  H        33.6919625503       23.5667963689       14.7628500466
  H        25.6960852124        8.6072651383       11.4073282088
  H        30.9090761458       22.6776152812        3.9121280456
  H        31.9244244969       24.5495354841        2.6140712020
  H        35.5442771573       24.1631875482        4.9064402105
  H        34.5098910071       22.3001139546        6.2089803420
  H        33.6408685842       23.5581678965        1.2119270985
  H        40.6011377696       17.0797759132        4.6619103810
  H        32.5109702823       14.1412451240        8.2429144928
  H        29.8864006323       12.5474602463        3.8855221683
  H        28.8491406427       10.6506491267        2.6371173613
  H        25.2210761894       11.1627954034        4.8898014698
  H        26.2802132663       13.0456001762        6.1466732314
  H        27.1283973369       11.7084237517        1.2463713445
  H        33.3133646563       14.2345097323        6.4725899542
  H        33.4118882449       14.3963089177        9.5975558003
  H        32.1184042634       18.4879659520        5.0910795254
  H        30.2301566323       14.1885529635        8.0765029325
  H        16.1180828057        2.9633283208       12.1295058911
  H        14.9529690800        4.8204868551       13.3221981846
  H        17.3668146058        7.6858585973       11.2105423737
  H        18.5154914061        5.8182047468       10.0108239918
  H        16.7537331227        5.7396358725       14.7715000419
  H        44.8281191360       32.1403253043       11.9769886103
  H        45.9374686079       30.3414796826       13.3063902320
  H        43.6825305462       27.3782118377       11.1524490592
  H        42.5997918777       29.1900449115        9.8098261609
  H        44.2305352617       29.4368237046       14.7688759428
  H        14.8512058587        8.5461471054       11.3633073318
  H        44.9001520427       32.2340603394        3.9320907713
  H        46.0250738151       30.4130418701        2.6525803691
  H        43.7630065874       27.4840985064        4.8448549498
  H        42.6451686299       29.3177524788        6.1239001561
  H        44.2686498647       29.4705722030        1.2181645302
  H        35.0141186227       26.6334260824        4.6458338689
  H        36.6051569998       35.1339049081        8.1806223855
  H        16.1434306785        3.0129866680        3.9042938281
  H        14.9739478195        4.8563910156        2.6885060357
  H        17.3964237903        7.7472036956        4.7549337099
  H        18.5434141925        5.8932204781        5.9825778922
  H        16.7648080147        5.7555514048        1.2192839108
  H        36.2786484774       34.4823255865        6.2732154815
  H        36.3806576423       34.2091002130        9.4997342303
  H        40.5792608582       33.2017181330        5.1540510050
  H        17.4708506935        1.9469605701        7.9741166588
  H        29.1583273663       19.2380188218       12.4150253985
  H        28.8988428807       19.0056103422        3.7331703293
  H        31.8341359856       15.5873703496        3.5317193624
  H        31.4328859802       15.5509152799       12.4487523291
  H        27.9270304526       17.7179620858       14.2574638151
  H        29.4058804898       15.3435764238       14.4601184027
  H        28.4931648569       18.2238450675        1.6376405373
  H        32.0329213310       18.5283498428       14.7269670659
  H        18.8521559652        0.8683888951       12.3351616664
  H        40.5281614688       35.2289478628        3.9521283347
  H        42.3237993627       34.4186141681        3.5907434751
  H        22.0874279359        0.6920939418       12.3515071430
  H        11.5962553867       18.7133344707       12.3830488291
  H        52.2647927065       18.4313702866        3.6770624351
  H        49.2556416789       16.4771008923        3.5844481466
  H        10.1495305588       15.7981894644       12.2930631719
  H        50.8500934362       17.6922813687        3.9543274380
  H        10.0456667548       17.3944260644       12.0520217679
  H        20.2132604653        0.0018426123       12.0421425740
  H        39.1837560333       36.1243409000        3.6863378714
 Ni        30.4377132751       17.3756287109        2.7504965956
 Ni        31.1996941788       16.3549564140       -0.3310506193
 Ni        29.6272249784       18.8747308072       -0.3313852867
 Ni        30.0114294400       17.2352037169       12.9925697963
  O        10.6499478925       14.3650860990        5.4858616690
  O        12.6131858735       14.6575209224        6.5838776570
  O        49.1481498229       16.8459145827        7.9897877270
  O        50.3503160347       20.9358720831        5.6481320343
  O        48.3485880227       20.5933707943        6.6659084972
  O        11.0518594313       17.0538260942        6.5006857696
  O        50.3211574336       20.8816755861       10.4068430845
  O        48.3468458872       20.5868054327        9.3271836952
  O        49.5441914485       18.2484607330       10.0682602406
  O        12.3591279642       18.6245803914        7.9997840678
  O        48.6932892531       14.1484828500        6.7513138577
  O         8.2098748835       14.2103611683        9.3225657502
  O        10.7353824322       14.5067873437       10.6643355714
  O        12.5718235219       14.5828065501        9.3285018577
  O        22.8445701846        2.0433991557        5.4870701154
  O        21.6052980033        3.5921350048        6.5898709380
  O        42.0580161110       34.1372580002        7.9790587547
  O        37.9813452991       33.1370634853        5.5725147883
  O        39.2174905177       31.5754228144        6.6661033956
  O        20.3083156945        1.0393735048        6.5020306743
  O        38.0242080100       33.1844469892       10.4157935566
  O        39.2187605464       31.5832598689        9.3270214375
  O        40.6521918441       33.7692874998       10.0602239571
  O        18.2555781323        1.3758514859        7.9967647935
  O        44.6222027223       35.1005512235        6.7587788366
  O        24.2052918302        0.0000813869        9.3208303389
  O        22.7530802409        2.0591134209       10.5843968357
  O        21.6242252475        3.5960733135        9.3422308193
  O        27.4947259905       18.7515296953        5.4909065766
  O        26.7638012686       16.9361363490        6.6522097772
  O        30.6754425048       19.3955433950        8.0048739268
  O        33.5889968826       16.2697717721        5.6641041045
  O        34.2790179066       18.1657292381        6.7207384521
  O        29.5823704682       17.0475147134        6.5766536859
  O        33.6195649667       16.3274299105       10.4042719849
  O        34.3089587825       18.2453828642        9.3975506541
  O        31.7132423379       18.3119896245       10.0720457278
  O        30.3256964592       15.1551709905        8.0790168565
  O        28.5515722156       21.0324967973        6.8311196856
  O        28.5146854865       20.9543387541        9.4033471454
  O        27.4652198423       18.6798688073       10.6570122737
  O        26.6961148754       16.9299194891        9.4120451096
  O        13.1496383888       18.6927630091       10.5877103523
  O        13.9197656888       16.9161909715        9.4051508100
  O        50.5963966174       19.3503221953        8.0206510312
  O        47.6834555240       16.3271325711       10.4172560173
  O        46.9524839992       18.1761246234        9.3240752185
  O        11.0699288551       17.0154719514        9.4897686445
  O        47.6770132656       16.3353303774        5.6534041303
  O        46.9284954789       18.2356968075        6.6652363919
  O        49.5688782665       18.3177238868        5.9823052764
  O        10.3186746158       15.1001130251        7.9970950916
  O        52.6707816286       21.0278803859        9.2418346474
  O        12.1468805824       20.8911883074        6.6732034277
  O        13.1081691789       18.6135995556        5.3255519781
  O        13.9570869274       16.9869026513        6.6655527505
  O        29.9979289954       14.4469478037       10.7243113731
  O        28.0902432367       14.6549842138        9.4934522948
  O        32.1384005868       16.8550329303        8.0198094083
  O        30.9674128025       20.9495162924       10.4054082740
  O        32.9479488757       20.6025172280        9.3325537809
  O        29.5742334448       17.0739632466        9.5693337835
  O        30.8561966825       20.8897014375        5.6536935634
  O        32.8723537001       20.5866737969        6.6615850334
  O        31.6798668708       18.2449718670        5.9227585745
  O        28.2932465981       18.6742704242        8.0639606451
  O        32.4938073939       14.2124934980        9.3241413733
  O        32.4060213258       14.2149432315        6.8214283776
  O        29.9230941503       14.4442177798        5.4851310352
  O        28.0425578326       14.5889391740        6.7505601347
  O        17.8891859621        1.9665095437       10.6628311100
  O        18.9562015166        3.5270752459        9.4079916656
  O        39.1685556148       34.1386280861        7.9971540976
  O        43.2802142691       33.0589786068       10.3316990568
  O        42.0344808122       31.5064688840        9.2416119581
  O        20.3174802475        1.0366302019        9.4803636372
  O        43.2760602387       33.1825971597        5.5749445359
  O        42.0052473356       31.5840864719        6.5829636725
  O        40.5789641668       33.7748402096        5.9358510137
  O        22.3672540516        1.3845688111        7.9980023115
  O        36.6727843803       35.0996483689        9.2333185159
  O        16.4455941928        0.0641905230        6.6683008769
  O        17.9364830994        2.0433483328        5.3263594356
  O        18.9190024682        3.5930967312        6.6659689390
  O        29.7761212244       18.7560643684        4.0750715675
  O        29.9031496988       18.8337445288       11.9225485950
  O        31.4181311656       16.3368036618        3.9919257676
  O        31.3919637087       16.4119530471       11.9863499214
  O        29.3529852762       17.8814036195        1.3356156682
  O        30.2410768138       15.7461625129       14.1630437513
  O        31.5096404183       18.2396528537       15.4933405528
  O        28.7688788361       18.1681271193       14.0732270298
  O        39.4568720451       35.2437165525        4.0019238120
  O        19.1402056070        0.0038649452       11.9906417490
  O        41.9695939302       35.1727034840        4.0871719124
  O        21.6910572429       -0.0692811220       11.8957386453
  O        51.3650540059       18.6143390741        4.0054603662
  O        10.7507791946       18.7472423609       11.9049170884
  O        50.0801049619       16.4128230632        4.0916628446
  O         9.5239025297       16.4831140375       11.9912086108
 Zr         9.2970959144       16.0526512179        6.1825263085
 Zr        49.8363191355       16.0066264233        9.7463179681
 Zr        22.0732557334        0.0298027913        6.1890805808
 Zr        42.4608679003       35.1536301641        9.8010382278
 Zr        29.6081372113       19.0676061405        6.2389899328
 Zr        29.6038491777       19.1872514421        9.8021889118
 Zr        11.0382867703       19.0519297873        9.8277737301
 Zr        11.0439098818       19.1548496884        6.2511514184
 Zr        31.3685159274       16.1084721185        9.8200251624
 Zr        31.3886646617       16.0128779038        6.2538992077
 Zr        18.6009409617       -0.0019009420        9.7632576446
 Zr        18.5065234581       -0.0079419628        6.2135158782
 Zr        12.3020058935       16.3235108663        7.9904941926
 Zr        48.6168753102       18.8333182803        8.0103420897
 Zr        20.3151475573        2.4732705104        7.9905903450
 Zr        40.6431808364       32.6867681664        7.9781248617
 Zr        28.3433557777       16.3352425666        8.0873295329
 Zr        32.6484651539       18.8433325893        8.0233218496
  H        28.4493389278       19.7241995320        0.0048560392
  H        31.1476089607       15.0357440364        0.3046655486
