     570
 i =      185, E =     -4745.5402217593
  C        11.8587654495       14.0535451348        5.7416292657
  C        12.4562938894       12.8906311370        5.0232116294
  C        11.7044446532       12.1713858692        4.0819205890
  C        12.2807799742       11.1091080801        3.3896153885
  C        13.6215097230       10.7396306747        3.6170018810
  C        14.3548195280       11.4434658730        4.5901735332
  C        13.7819598024       12.5085174256        5.2816184995
  C        14.2610270226        9.6489019032        2.8436154561
  C        14.2560932723        9.6566400618        1.4218970540
  C        13.7427730777       10.7587027695        0.6679982174
  C        49.1266456780       21.2330657233        5.8797097065
  C        48.5497867158       22.4009970692        5.1525654907
  C        49.2999178876       23.0684651821        4.1717433994
  C        48.7330393805       24.1076851025        3.4385918662
  C        47.4024485136       24.5092008782        3.6670395066
  C        46.6713960895       23.8601747980        4.6803652933
  C        47.2337682710       22.8151910654        5.4096888621
  C        46.7722425905       25.5869166543        2.8697641009
  C        46.7613473581       25.5573929516        1.4480163547
  C        47.2613804950       24.4423705652        0.7045121957
  C        14.8599993951        8.5702793262        0.7086111680
  C        14.8919729233        8.5970295833        3.5202526905
  C        49.1131485406       21.2033055537       10.1454176730
  C        48.5277670975       22.3646899815       10.8726128028
  C        49.2671797732       23.0255452247       11.8652870214
  C        48.6910084023       24.0602514788       12.5966703888
  C        47.3605385523       24.4569390800       12.3585812022
  C        46.6399420027       23.8119142174       11.3352511345
  C        47.2133532155       22.7758315189       10.6035905854
  C        46.7221496590       25.5319802327       13.1496325247
  C        46.7337500811       25.5283210391       14.5713670983
  C        47.2492662461       24.4291224123       15.3277447980
  C        40.6011385699       17.0811855821       15.2927713744
  C        40.5911941238       17.0560642887       12.4819745600
  C        11.8829334729       14.0866383125       10.2855515481
  C        12.4721520003       12.9107423914       10.9898280928
  C        11.7144253998       12.1773634763       11.9156261123
  C        12.2808571486       11.0947729532       12.5839796470
  C        13.6197479142       10.7211550221       12.3524291848
  C        14.3579144576       11.4368449736       11.3918772296
  C        13.7926396520       12.5181431755       10.7192469716
  C        14.2532630254        9.6243071420       13.1228158151
  C        14.2520010177        9.6441998462       14.5446578585
  C        13.7420903082       10.7531191163       15.2917414423
  C        22.5061552228        3.2444753204        5.7447685029
  C        23.2071312218        4.3477808454        5.0267657788
  C        24.2058616942        4.0648213695        4.0830460923
  C        24.8284517803        5.1010678949        3.3913721500
  C        24.4682661243        6.4436836587        3.6222607929
  C        23.4917708773        6.7182166546        4.5974382622
  C        22.8653225391        5.6838296771        5.2881809027
  C        25.0842463303        7.5491304265        2.8517473191
  C        25.0840953920        7.5414273045        1.4297844217
  C        24.3971760764        6.5417652459        0.6704987091
  C        38.3040833341       31.9276261962        5.8457401640
  C        37.5786137948       30.8370761974        5.1303789920
  C        36.6192078064       31.1398925191        4.1518559689
  C        36.0036052494       30.1197015445        3.4310485010
  C        36.3315394412       28.7698818039        3.6664087858
  C        37.2630222670       28.4745323461        4.6799460596
  C        37.8826131420       29.4934610700        5.3996131572
  C        35.7269505733       27.6772060055        2.8694433345
  C        35.7521631812       27.6919850985        1.4474675141
  C        36.4525691115       28.6958018699        0.7070479187
  C        25.7203502890        8.6112348409        0.7211029404
  C        25.6710774017        8.6237462856        3.5332344309
  C        38.3256917242       31.9612510668       10.1537209025
  C        37.5972753454       30.8870961702       10.8891714069
  C        36.6639355065       31.1950014791       11.8909017858
  C        36.0482405957       30.1760396158       12.6154004609
  C        36.3515365979       28.8232071288       12.3625040393
  C        37.2613168673       28.5251715517       11.3295514814
  C        37.8787021928       29.5407087093       10.6057242859
  C        35.7432732450       27.7237427086       13.1474847560
  C        35.7601485706       27.7160820399       14.5697410161
  C        36.4560180453       28.7076482684       15.3302772619
  C        46.1357153191       26.6209465023       15.2815175626
  C        46.0881826777       26.5803404028       12.4735458479
  C        22.4734813579        3.2584934876       10.2522874421
  C        23.1942515512        4.3660321233       10.9559631527
  C        24.2074966856        4.0757504257       11.8842591811
  C        24.8568529189        5.1028800530       12.5664412121
  C        24.5148996213        6.4525260035       12.3455931817
  C        23.5278640702        6.7359953348       11.3823796823
  C        22.8744911167        5.7090692213       10.6995081740
  C        25.1514366446        7.5465943152       13.1263211135
  C        25.1190634801        7.5394088620       14.5496966798
  C        24.4110068131        6.5428344793       15.2936456716
  C        26.6001356176       17.9060014731        5.7813963627
  C        25.2971451367       17.9612224800        5.0554142506
  C        25.0455152952       18.9535794424        4.0952191999
  C        23.8330842827       18.9760256013        3.4084442822
  C        22.8385039810       18.0091627040        3.6597049418
  C        23.0864368151       17.0406592687        4.6506553278
  C        24.2995556891       17.0130192509        5.3352380452
  C        21.5680291256       17.9898976700        2.8932111452
  C        21.5707109609       17.9630998902        1.4709669892
  C        22.7778832272       17.8402428633        0.7131453595
  C        34.4390900925       17.1843063408        5.9150369873
  C        35.7328565029       17.1302116829        5.1745491218
  C        35.9190587915       16.1883835219        4.1503036032
  C        37.1008860082       16.1737775259        3.4145062880
  C        38.1283380852       17.1018618526        3.6766845160
  C        37.9433052721       18.0233192245        4.7261455932
  C        36.7605340781       18.0422435147        5.4619594357
  C        39.3782158231       17.1156808012        2.8811810296
  C        39.3631750395       17.1274183254        1.4584600315
  C        38.1514841977       17.2556959587        0.7095651546
  C        20.3248549818       17.9722448913        0.7612973400
  C        20.3428404643       17.9856529183        3.5744449651
  C        34.3456306024       17.1420632328       10.2711317866
  C        35.6524372530       17.0551832876       10.9795350731
  C        35.8697034425       16.1095881462       11.9936458023
  C        37.0800251942       16.0878795734       12.6830699474
  C        38.1019811562       17.0124714865       12.3855469478
  C        37.8887760282       17.9281518148       11.3373481364
  C        36.6807666260       17.9532406781       10.6472594154
  C        39.3645647851       17.0485886875       13.1593116183
  C        39.3567820291       17.0930642588       14.5810490139
  C        38.1482008592       17.2374255960       15.3330748888
  C        35.1348728073       26.6352597741       15.2759168862
  C        35.1498364685       26.6534065031       12.4664337735
  C        26.5668778951       17.8279437344       10.3251288826
  C        25.2519526243       17.8841404728       11.0248501487
  C        24.9964298348       18.8866760946       11.9728072312
  C        23.7788369066       18.9188418388       12.6458889270
  C        22.7889508362       17.9473011645       12.3971355251
  C        23.0388912108       16.9702852647       11.4161518752
  C        24.2562492681       16.9368218594       10.7395095654
  C        21.5265433136       17.9322450649       13.1711630758
  C        21.5495009318       17.9315709367       14.5929438429
  C        22.7673769537       17.8241242765       15.3368128385
  C        14.0463640303       17.8305270369       10.2870197847
  C        15.3511035779       17.8921309828       11.0095897387
  C        15.6061390776       18.8998504028       11.9527718855
  C        16.8151840992       18.9254466555       12.6447150820
  C        17.8027344414       17.9462555281       12.4153001354
  C        17.5526451748       16.9629376883       11.4396072077
  C        16.3430014837       16.9328144042       10.7489976318
  C        19.0707873618       17.9344397054       13.1847666042
  C        19.0677962174       17.9376991284       14.6071048739
  C        17.8601514627       17.8374965787       15.3671114880
  C        46.7957050978       17.2120770510       10.1524644812
  C        45.4920525325       17.1308693075       10.8794816428
  C        45.2840519162       16.1477289548       11.8599947437
  C        44.0941420090       16.1125801998       12.5838940145
  C        43.0768341095       17.0598200522       12.3523107465
  C        43.2793992301       18.0181460660       11.3400067198
  C        44.4708126484       18.0576774917       10.6170881660
  C        41.8236780342       17.0649293764       13.1479445055
  C        41.8413843516       17.0863305781       14.5712993664
  C        43.0559809376       17.1952384802       15.3194727073
  C        20.3137249742       17.9566423145       15.3164179223
  C        20.2951148399       17.9143920059       12.5037171719
  C        46.7855062488       17.2349097898        5.8810633421
  C        45.4881128810       17.1356497504        5.1506254378
  C        45.2777326763       16.1453299766        4.1784826269
  C        44.0935326114       16.1191442254        3.4448059351
  C        43.0869797145       17.0798479222        3.6653261405
  C        43.2903772329       18.0431918209        4.6718010447
  C        44.4757765056       18.0760463251        5.4002765643
  C        41.8354484278       17.0947473638        2.8734703490
  C        41.8475753701       17.1009482907        1.4513438864
  C        43.0589738143       17.1991590285        0.6967622344
  C        46.1533731782       26.6373068259        0.7262866393
  C        46.1623236593       26.6560392769        3.5358647383
  C        14.0445520316       17.8336230110        5.7090837567
  C        15.3639645066       17.9149580115        5.0176426130
  C        15.6280549600       18.9333918122        4.0895080609
  C        16.8546461124       18.9797262837        3.4312594910
  C        17.8446586146       18.0070415475        3.6758900583
  C        17.5873078501       17.0174227150        4.6421254413
  C        16.3624314256       16.9702787780        5.3037319494
  C        19.1113259730       17.9926148655        2.9063647228
  C        19.0888707371       17.9669743676        1.4849515525
  C        17.8704165610       17.8502747937        0.7434159519
  C        28.8215804817       14.1638872388       10.4132741525
  C        28.2448805704       12.9822490213       11.1158442097
  C        28.9719037060       12.2611409841       12.0750457958
  C        28.3936008541       11.1600210181       12.7057976101
  C        27.0754470525       10.7563669017       12.4058954178
  C        26.3723527475       11.4625246540       11.4129532968
  C        26.9466656119       12.5599591938       10.7796562754
  C        26.4103080849        9.6596064622       13.1497854054
  C        26.3674923770        9.6850739813       14.5704608366
  C        26.8486513201       10.8010312545       15.3260184237
  C        32.1966563129       21.1982001096       10.1525322841
  C        32.7754526336       22.3766078757       10.8608399723
  C        32.0287033020       23.0371526126       11.8490718756
  C        32.5902152955       24.0862851831       12.5710259273
  C        33.9145663068       24.5014600644       12.3291314080
  C        34.6414826403       23.8596131767       11.3082826587
  C        34.0823783917       22.8072276568       10.5859992627
  C        34.5404934016       25.5807646144       13.1276223266
  C        34.5418431495       25.5504648167       14.5497957004
  C        34.0438614730       24.4322458047       15.2904561025
  C        25.7439702754        8.6061156376       15.2762480533
  C        25.7847858586        8.6079536913       12.4636847380
  C        32.1046760780       21.2237785905        5.8801237618
  C        32.6998359723       22.3679583396        5.1291271340
  C        31.9691487508       23.0164130730        4.1208279024
  C        32.5494786128       24.0466151657        3.3838240655
  C        33.8737656583       24.4584116696        3.6349617782
  C        34.5867839925       23.8205734064        4.6684357651
  C        34.0119372613       22.7852511397        5.4013279182
  C        34.5135039158       25.5404548992        2.8501329896
  C        34.5279932501       25.5302682509        1.4279506185
  C        34.0361712922       24.4232520974        0.6672765407
  C        40.6036218006       17.0937079561        0.7385867490
  C        40.6091357697       17.1155120526        3.5486569829
  C        28.7185905291       14.0947959651        5.7488827005
  C        28.1124011495       12.9340914171        5.0345808036
  C        28.8559621555       12.2092564363        4.0899089006
  C        28.2754217331       11.1436828065        3.4071783822
  C        26.9356509597       10.7748535247        3.6429087716
  C        26.2105182228       11.4827188524        4.6197236215
  C        26.7889549398       12.5498623878        5.3045935560
  C        26.2962386697        9.6850220953        2.8666003174
  C        26.3095987816        9.6991223497        1.4449431569
  C        26.8198609041       10.8088416151        0.7012164795
  C        18.1354430669        3.1810760330       10.3171058850
  C        17.4058692532        4.2781968947       11.0154282380
  C        16.3903497807        3.9996666091       11.9431591502
  C        15.7424390015        5.0395326094       12.6066198886
  C        16.0940160050        6.3833391664       12.3668602084
  C        17.0831852831        6.6530049304       11.4029079578
  C        17.7325276361        5.6158006088       10.7378848339
  C        15.4696731209        7.4909441777       13.1300321442
  C        15.4849932726        7.4901938735       14.5517542339
  C        16.1866562414        6.4966474161       15.3049116031
  C        42.9459396475       31.8595953020       10.0728945235
  C        43.6463686389       30.7719832858       10.8167744520
  C        44.5918211870       31.0933719128       11.8029097498
  C        45.1975643900       30.0878760322       12.5506161238
  C        44.8713432230       28.7347549886       12.3356332709
  C        43.9457121077       28.4203515780       11.3222263961
  C        43.3368716403       29.4254573060       10.5741601040
  C        45.4889367873       27.6554614979       13.1388511102
  C        45.4930766795       27.6811074035       14.5605701398
  C        44.8059081143       28.6891128188       15.3072045655
  C        14.8560652472        8.5626844339       15.2641628906
  C        14.8743587225        8.5627398699       12.4514991840
  C        42.9465305378       31.9615993358        5.8090205341
  C        43.6917689011       30.8855093328        5.0955943813
  C        44.6562233822       31.1914037961        4.1231243636
  C        45.2776902127       30.1717979699        3.4053832351
  C        44.9540917330       28.8214540862        3.6431375494
  C        44.0208164548       28.5238338817        4.6541234870
  C        43.3925954235       29.5405804039        5.3663507809
  C        45.5630668616       27.7240700289        2.8578624364
  C        45.5333971936       27.7174595941        1.4365817853
  C        44.8271590134       28.7077112106        0.6835996352
  C        35.1296016267       26.6239140523        0.7214329880
  C        35.1243829467       26.6008542889        3.5313568709
  C        18.1489778533        3.2469936740        5.7066351821
  C        17.4304050536        4.3438263865        4.9973923339
  C        16.4152786408        4.0525304823        4.0737157314
  C        15.7669253411        5.0831240157        3.3983168785
  C        16.1213956651        6.4284220735        3.6211029575
  C        17.1125619757        6.7118367623        4.5786119237
  C        17.7602596969        5.6829518023        5.2584161028
  C        15.4907504965        7.5240482485        2.8486483202
  C        15.4963838895        7.5072585458        1.4274969118
  C        16.1930638686        6.5055380564        0.6807347144
  H        10.6721970706       12.4652793038        3.9051735013
  H        11.6943585659       10.5504042023        2.6633457713
  H        15.3919919054       11.1691807202        4.7715946525
  H        14.3515718731       13.0720339142        6.0167173498
  H        13.3757511449       11.6308209747        1.2013256638
  H        50.3227039366       22.7485500935        3.9871766013
  H        49.3196447396       24.6230558073        2.6811858026
  H        45.6418608823       24.1608538771        4.8633977675
  H        46.6627055005       22.2898384820        6.1716782687
  H        47.6300023304       23.5760328795        1.2461814133
  H        14.8724936355        8.5884227050        4.6085713199
  H        50.2872780949       22.7027607577       12.0600256800
  H        49.2695532623       24.5758310461       13.3599902840
  H        45.6104890539       24.1091102136       11.1463379612
  H        46.6523962864       22.2534892553        9.8322497705
  H        47.6081990081       23.5520667521       14.7968088769
  H        40.5873444107       17.0026887870       11.3947901696
  H        48.6868672074       14.0952227198        7.7999876330
  H        10.6808904667       12.4663579664       12.0927986256
  H        11.6889068703       10.5242701409       13.2964541794
  H        15.3934350961       11.1591152230       11.2062256076
  H        14.3651655735       13.0876713146        9.9909879303
  H        13.3751966299       11.6216971777       14.7530955646
  H        47.9301082087       14.2190460791        9.7112403885
  H        47.7798483403       14.3730732694        6.4950346145
  H        49.0809841423       18.5508461862       10.8664993536
  H        10.4158006545       14.1344462341        7.9989515765
  H        24.4746917389        3.0261338705        3.9040161762
  H        25.6061301900        4.8800198199        2.6634766112
  H        23.2035827280        7.7512264642        4.7809743758
  H        22.0923225006        5.8877405570        6.0251648329
  H        23.8268630863        5.7841174402        1.2002049785
  H        36.3795877706       32.1828621343        3.9584289927
  H        35.2586026543       30.3600334731        2.6757071914
  H        37.5256572429       27.4357678595        4.8694114570
  H        38.6262367475       29.2714622345        6.1613973689
  H        37.0188097253       29.4464801621        1.2507321778
  H        25.6875335709        8.6057503290        4.6215146896
  H        36.4422238540       32.2391252898       12.0999596285
  H        35.3200056591       30.4211478678       13.3853856702
  H        37.5076011146       27.4849829006       11.1267676542
  H        38.6038763085       29.3148742311        9.8276949872
  H        37.0258516239       29.4670498652       14.8026707434
  H        46.1096820572       26.5877357652       11.3854902304
  H        44.6682774166       35.1161477718        7.8140256640
  H        24.4757340190        3.0355996744       12.0553575930
  H        25.6425562897        4.8670977624       13.2811383564
  H        23.2502883343        7.7722035196       11.1998627367
  H        22.0961272071        5.9289985619        9.9723371707
  H        23.8508025850        5.7863081246       14.7519468597
  H        44.9537258211       34.3903747573        9.6951581816
  H        44.9017511793       34.2070724530        6.4904018228
  H        40.6654397383       33.2089424475       10.8529876911
  H        23.1509428690        1.9581266853        8.0021841742
  H        25.8097455002       19.7025669154        3.9001725036
  H        23.6428365486       19.7507643015        2.6687705276
  H        22.3295592769       16.2855353280        4.8527989968
  H        24.5027043613       16.2513411621        6.0841959749
  H        23.7192532315       17.7271883360        1.2430376428
  H        35.1176288447       15.4863187432        3.9322157829
  H        37.2406771817       15.4350686440        2.6284439867
  H        38.7257629357       18.7499410085        4.9351357240
  H        36.6043574316       18.7712105847        6.2537329286
  H        37.2173128372       17.3985323886        1.2450381826
  H        20.3482622649       18.0279320233        4.6622230359
  H        35.0752985228       15.4093187585       12.2416693743
  H        37.2439450956       15.3506406894       13.4658604278
  H        38.6676203586       18.6492547178       11.0981835551
  H        36.5015042487       18.6789508805        9.8578175737
  H        37.2109367813       17.3662895032       14.7995410039
  H        35.1168105055       26.6811436115       11.3789008881
  H        28.5321109498       21.0654226632        7.9938096158
  H        25.7644389952       19.6313445323       12.1682404977
  H        23.5812728518       19.7004431654       13.3761759444
  H        22.2826029431       16.2135203294       11.2181600830
  H        24.4647585921       16.1701941531        9.9971746686
  H        23.7008384245       17.6983670522       14.7963414870
  H        29.0247845564       21.6624406042        9.7876123211
  H        29.1302829954       21.7632212779        6.6198861789
  H        32.1545740337       18.4725966952       11.0088567030
  H        27.4148777880       19.0946729171        8.0993211038
  H        14.8462446469       19.6580535218       12.1281175781
  H        17.0100613972       19.7126660672       13.3698356754
  H        18.3053140208       16.1994002459       11.2540592308
  H        16.1375769623       16.1606201748       10.0114549825
  H        16.9187291900       17.7169789388       14.8390423090
  H        46.0736473986       15.4247909657       12.0514718368
  H        43.9403783640       15.3435574979       13.3378437594
  H        42.5044237666       18.7583454839       11.1515002931
  H        44.6395178243       18.8157031505        9.8555619346
  H        43.9931299002       17.3053177501       14.7813893673
  H        20.2896510604       17.9391109743       11.4154700704
  H        46.0571895186       15.4077765126        4.0010287422
  H        43.9345998184       15.3472730194        2.6948937048
  H        42.5206440363       18.7914853125        4.8489764690
  H        44.6503159363       18.8384529080        6.1555890692
  H        43.9986026185       17.3115804197        1.2301046233
  H        46.1991873462       26.6825336358        4.6232923899
  H        52.7412489004       21.0627150591        8.1946057005
  H        14.8620168059       19.6822997973        3.9011470821
  H        17.0589773203       19.7724092888        2.7147291246
  H        18.3438474517       16.2604061342        4.8382809072
  H        16.1482039538       16.1934964395        6.0337822091
  H        16.9367661837       17.7393104509        1.2866608306
  H        52.3227462410       21.6735273117        6.2944051876
  H        52.0138454282       21.7026392658        9.4956591853
  H        49.0676988343       18.6079776196        5.2038817243
  H        13.2472197814       19.0165474003        7.9771898197
  H        29.9859611950       12.5753114386       12.3139087197
  H        28.9611857834       10.6004476368       13.4462282053
  H        25.3533226899       11.1659418217       11.1733553530
  H        26.3977704441       13.1212171296       10.0280507640
  H        27.2157490303       11.6733821717       14.7941846435
  H        31.0137423976       22.7017346979       12.0492461140
  H        32.0049397105       24.5970651011       13.3325250661
  H        35.6661866628       24.1699914775       11.1144585268
  H        34.6518355822       22.2881108394        9.8185737552
  H        33.6914162349       23.5608903546       14.7461081944
  H        25.8319254639        8.5910707597       11.3761373502
  H        30.9495204304       22.6928490936        3.9223635052
  H        31.9749416461       24.5512336204        2.6100144752
  H        35.6121335893       24.1251297867        4.8679561479
  H        34.5692034138       22.2723773131        6.1817458728
  H        33.6774728047       23.5451252093        1.1964333339
  H        40.6127319586       17.0775423390        4.6363591358
  H        32.5056898469       14.0948701254        7.8100463432
  H        29.8891735349       12.4936214633        3.9049196687
  H        28.8580802628       10.5819669432        2.6802677709
  H        25.1743051819       11.2104196183        4.8096994392
  H        26.2235315907       13.1144638602        6.0421457685
  H        27.1647381838       11.6864642520        1.2400832968
  H        33.3597605072       14.3029837882        6.4287337772
  H        33.2790942061       14.1489657265        9.6638687296
  H        32.0960070806       18.5339713742        5.1455003269
  H        30.2023301052       14.1293815465        8.0205858848
  H        16.1184320620        2.9631322963       12.1295804517
  H        14.9530830255        4.8200004117       13.3223295400
  H        17.3653460584        7.6859310881       11.2096845423
  H        18.5144435223        5.8186643038       10.0099698199
  H        16.7531827191        5.7392940854       14.7714011077
  H        44.8279561713       32.1404679640       11.9772140885
  H        45.9373602167       30.3416821223       13.3066286267
  H        43.6832644929       27.3782333908       11.1519596214
  H        42.6004253688       29.1900376411        9.8093618883
  H        44.2306222869       29.4369454543       14.7688930852
  H        14.8506343734        8.5460592019       11.3632843948
  H        44.8997232044       32.2340781743        3.9315628795
  H        46.0245220493       30.4130297443        2.6520850221
  H        43.7641005081       27.4840983233        4.8459149030
  H        42.6463290055       29.3177634813        6.1250201817
  H        44.2686395911       29.4705999340        1.2181360785
  H        35.0839522305       26.6144024350        4.6189338062
  H        36.6051425861       35.1340114564        8.1807049291
  H        16.1442654097        3.0129477307        3.9039147624
  H        14.9746714018        4.8562110108        2.6881688039
  H        17.3958551349        7.7473403847        4.7556811821
  H        18.5428546366        5.8935190738        5.9834571811
  H        16.7646345828        5.7553446358        1.2191004962
  H        36.2784679557       34.4826613615        6.2729162505
  H        36.3805054484       34.2094231138        9.4998911591
  H        40.5808748644       33.2031220345        5.1535354361
  H        17.4716017799        1.9474767670        7.9742720181
  H        28.9268421222       19.1515573128       12.5064639462
  H        28.9584789326       18.9629016948        3.7380733863
  H        30.8346832520       15.6788269393        3.5688147266
  H        28.2543059353       17.5488875922       15.0210673620
  H        29.5035026972       15.4430549078       14.8259587623
  H        31.2161104989       20.0490348966        1.6993726169
  H        32.6436641649       17.9603107538        1.3216054355
  H        32.1043822501       18.6673784518       14.8523697881
  H        18.8532064474        0.8691739809       12.3350606035
  H        40.5280861465       35.2288261779        3.9519333288
  H        42.3244214909       34.4190146938        3.5903449653
  H        22.0878181570        0.6919187844       12.3522303206
  H        11.5967546818       18.7125344434       12.3823903929
  H        52.2649979374       18.4312468512        3.6778873786
  H        49.2553140089       16.4766665889        3.5844114864
  H        10.1502257367       15.7983752525       12.2926994374
  H        50.8501516616       17.6925250899        3.9541326559
  H        10.0459343351       17.3949347583       12.0519049315
  H        20.2142739982        0.0022935293       12.0421425827
  H        39.1836080598       36.1243832140        3.6864981132
 Ni        30.9456162137       17.9641673974        2.9948630967
 Ni        31.1071642046       16.6515333102        0.2416034559
 Ni        29.7175075195       18.8202307579        0.2498028312
 Ni        30.2710599207       17.5707242688       13.4969275299
  O        10.6499723977       14.3651586895        5.4858792985
  O        12.6131986934       14.6575612387        6.5838999861
  O        49.1474424899       16.8458866777        7.9899272486
  O        50.3501335990       20.9360261899        5.6481901331
  O        48.3484475138       20.5931892698        6.6660224402
  O        11.0512590809       17.0538230454        6.5007910430
  O        50.3209253981       20.8816601005       10.4068537104
  O        48.3466939812       20.5866396150        9.3271271785
  O        49.5434791334       18.2483955094       10.0682439628
  O        12.3588106575       18.6246204547        7.9996578444
  O        48.6931744914       14.1486999660        6.7512938826
  O         8.2097519610       14.2107369546        9.3226945513
  O        10.7352405415       14.5067635852       10.6642985651
  O        12.5717491111       14.5828053845        9.3285062918
  O        22.8444796955        2.0431734900        5.4864924530
  O        21.6064126122        3.5930281786        6.5884411837
  O        42.0581559743       34.1376584181        7.9793445192
  O        37.9817679014       33.1360998402        5.5717740492
  O        39.2177374808       31.5752880151        6.6659835862
  O        20.3085676871        1.0402586902        6.5024272125
  O        38.0241141173       33.1850051470       10.4152991719
  O        39.2188156077       31.5833865402        9.3266655964
  O        40.6523934221       33.7696450171       10.0603795405
  O        18.2561167737        1.3760443197        7.9968676288
  O        44.6221198264       35.1007085874        6.7588239654
  O        24.2054132167        0.0001107301        9.3208202865
  O        22.7542411177        2.0592178026       10.5847541810
  O        21.6270860796        3.5986434925        9.3463408147
  O        27.4980514177       18.7694462025        5.4931907651
  O        26.7268840805       16.9914108184        6.6656013503
  O        30.7000938580       19.3442230417        8.0840121890
  O        33.5793810867       16.2706247127        5.6681305386
  O        34.2758214850       18.1627192197        6.7306677103
  O        29.5673360862       17.0647492504        6.5815557404
  O        33.4327842392       16.2784324444       10.5741483526
  O        34.2218987785       18.0844052443        9.4168088553
  O        31.6373927872       18.1762666715       10.2420581741
  O        30.2894649793       15.0965192255        7.9981071212
  O        28.5541981484       21.0344493875        6.9130022312
  O        28.5571485801       20.8962247550        9.4137403000
  O        27.4597913398       18.6741479414       10.6600966314
  O        26.6924908950       16.9287297517        9.4143682898
  O        13.1476385323       18.6933460068       10.5868518331
  O        13.9191349478       16.9162881705        9.4048767191
  O        50.5955710667       19.3500618907        8.0206595980
  O        47.6797780444       16.3277989376       10.4179535243
  O        46.9487134503       18.1754889106        9.3262585993
  O        11.0693288321       17.0155948168        9.4895346523
  O        47.6750587035       16.3361947776        5.6520176613
  O        46.9244078802       18.2355723890        6.6626181555
  O        49.5682548702       18.3176976621        5.9823945227
  O        10.3187119366       15.1003147093        7.9971879371
  O        52.6707342712       21.0278837751        9.2417928937
  O        12.1467540078       20.8912386124        6.6733587273
  O        13.1061376221       18.6142687675        5.3259710522
  O        13.9570331157       16.9874823492        6.6645929523
  O        29.9920157443       14.5865817867       10.7436155506
  O        28.0932626604       14.6576779322        9.4853001545
  O        32.0791664504       16.8388108936        8.0019405372
  O        30.9965787388       20.8755727864       10.4225831616
  O        32.9638233168       20.5740443311        9.3333737078
  O        29.5761150772       17.0569613026        9.5025337647
  O        30.8747083834       20.9457311108        5.6674825753
  O        32.8807338268       20.5832459453        6.6685546732
  O        31.6827345362       18.2589383569        5.9863201117
  O        28.2912141094       18.6764902906        8.0804252043
  O        32.4053849047       14.2091057656        9.2442561514
  O        32.4493822592       14.1443193291        6.7401519135
  O        29.9079750095       14.4438771851        5.4131787733
  O        28.0082273190       14.6497424564        6.6589320854
  O        17.8893802728        1.9666573471       10.6627057564
  O        18.9564936685        3.5271661947        9.4079727315
  O        39.1686223727       34.1386975035        7.9972622809
  O        43.2801655575       33.0590667296       10.3316761136
  O        42.0344539961       31.5065251459        9.2416441241
  O        20.3178603630        1.0368614579        9.4799721724
  O        43.2760426601       33.1826416408        5.5749509630
  O        42.0052423900       31.5841591504        6.5830291777
  O        40.5789638306       33.7750097259        5.9362353030
  O        22.3675366641        1.3852089882        7.9982459761
  O        36.6728344909       35.0998252055        9.2333017915
  O        16.4457701261        0.0641897526        6.6682043073
  O        17.9365797402        2.0433148416        5.3265290530
  O        18.9193180553        3.5930348702        6.6661551563
  O        29.7709917985       18.7628333031        4.2372480776
  O        29.7421490341       18.8226301002       12.0788798304
  O        31.2195641711       16.4084843736        4.0884142874
  O        32.1160098031       17.2246012367        1.6871159779
  O        30.3361326287       15.9154907142       14.6646403915
  O        31.9607765003       17.7231546501       14.6671191899
  O        30.4994722986       19.4060608502        1.8342412893
  O        28.7749344105       18.3223050246       14.7330533843
  O        39.4567878270       35.2437637505        4.0020567038
  O        19.1411402038        0.0046080363       11.9905607235
  O        41.9692833111       35.1723142859        4.0872913501
  O        21.6914045297       -0.0691879753       11.8960530947
  O        51.3649412989       18.6143598570        4.0053958196
  O        10.7508570976       18.7471280352       11.9050293481
  O        50.0797162450       16.4127370538        4.0917585160
  O         9.5243248829       16.4831860070       11.9911300521
 Zr         9.2968437486       16.0527927748        6.1823624897
 Zr        49.8362704716       16.0071603280        9.7467802035
 Zr        22.0731169653        0.0300354285        6.1893837616
 Zr        42.4611477973       35.1541664641        9.8016395815
 Zr        29.5972746577       19.1176852912        6.3154369891
 Zr        29.5945209778       19.1064863968        9.9130228780
 Zr        11.0379344483       19.0521158396        9.8278780123
 Zr        11.0438000978       19.1548395300        6.2511443999
 Zr        31.3868687161       16.0137984378        9.7051918046
 Zr        31.3121522545       16.0496544331        6.1911907517
 Zr        18.6013074200       -0.0012614688        9.7632826770
 Zr        18.5066446131       -0.0075027244        6.2137939116
 Zr        12.3023717599       16.3236741502        7.9902551715
 Zr        48.6156779467       18.8326668708        8.0106528409
 Zr        20.3164937545        2.4746542400        7.9917153386
 Zr        40.6436162213       32.6871014005        7.9783226989
 Zr        28.3090092326       16.3491121083        8.0589454949
 Zr        32.6399357003       18.8348285408        8.0294337133
  H        29.2183653282       20.1618450826        0.0576642298
  H        30.2891328216       15.8736944340        1.1558547312
