     573
 i =       72, E =     -4762.8497495575
  C        11.8589235141       14.0535032849        5.7415894360
  C        12.4564717156       12.8906605332        5.0232367355
  C        11.7046550985       12.1714330028        4.0818948698
  C        12.2810601575       11.1092495228        3.3895440114
  C        13.6217735039       10.7397698139        3.6169882444
  C        14.3551122395       11.4437019523        4.5900596825
  C        13.7821970773       12.5086682675        5.2815685877
  C        14.2612597557        9.6490661981        2.8435942255
  C        14.2563685031        9.6568776961        1.4218955181
  C        13.7431012795       10.7589681160        0.6680122169
  C        49.1269317111       21.2331212775        5.8797178160
  C        48.5501930040       22.4011565700        5.1526679678
  C        49.3001621476       23.0683308217        4.1715364403
  C        48.7332555908       24.1075014468        3.4383410253
  C        47.4027991800       24.5093171920        3.6671187823
  C        46.6719398335       23.8606386902        4.6808278212
  C        47.2343706519       22.8157150952        5.4101694527
  C        46.7725145546       25.5869931941        2.8698448636
  C        46.7613681961       25.5573227531        1.4480806466
  C        47.2613038702       24.4422387383        0.7045715153
  C        14.8602280440        8.5705048809        0.7086189305
  C        14.8921633249        8.5971911277        3.5202341686
  C        49.1133114422       21.2034236609       10.1453665801
  C        48.5279587153       22.3648628105       10.8725128323
  C        49.2671207710       23.0253564294       11.8656158296
  C        48.6908363855       24.0599376718       12.5970915020
  C        47.3605385505       24.4569643683       12.3586625061
  C        46.6402387437       23.8123355627       11.3348784059
  C        47.2137443654       22.7764098870       10.6030825591
  C        46.7220585543       25.5319035763       13.1497105602
  C        46.7336196165       25.5281698753       14.5714220006
  C        47.2490350637       24.4289474305       15.3278082653
  C        40.6270813823       17.1065115701       15.3212809987
  C        40.6380854448       17.1261499095       12.5115398514
  C        11.8830163377       14.0865370592       10.2855018488
  C        12.4722978384       12.9107822872       10.9897722770
  C        11.7146711129       12.1774358617       11.9156848138
  C        12.2812276674       11.0949646898       12.5840945040
  C        13.6201208488       10.7213768125       12.3524568653
  C        14.3582285678       11.4371203984       11.3918931981
  C        13.7928403090       12.5183146332       10.7192076752
  C        14.2536581344        9.6245606113       13.1228383327
  C        14.2523471492        9.6444779005       14.5446773685
  C        13.7424790286       10.7534223001       15.2917583456
  C        22.5092016474        3.2445776896        5.7497001883
  C        23.2172050283        4.3493514629        5.0424701024
  C        24.2121215548        4.0685630720        4.0942737671
  C        24.8358262593        5.1072068834        3.4077516962
  C        24.4803673563        6.4492985713        3.6487199365
  C        23.5116361413        6.7215667013        4.6320404777
  C        22.8835853507        5.6847807697        5.3173091660
  C        25.0897964621        7.5552878632        2.8748417607
  C        25.0753652509        7.5472500749        1.4529968149
  C        24.3782338723        6.5490548408        0.7008043465
  C        38.3027255043       31.9301072897        5.8493630336
  C        37.5729615165       30.8404824684        5.1400153097
  C        36.6133680191       31.1441969613        4.1623239176
  C        35.9962757413       30.1237109029        3.4442390052
  C        36.3241218616       28.7747560473        3.6827672529
  C        37.2539836237       28.4784258637        4.6969903551
  C        37.8752708837       29.4976647068        5.4137530725
  C        35.7219623970       27.6830615836        2.8854919178
  C        35.7543377264       27.6978757899        1.4642301363
  C        36.4616968940       28.6995493732        0.7274027279
  C        25.7078045570        8.6151311720        0.7381340901
  C        25.6828078523        8.6299159208        3.5502084294
  C        38.3292159870       31.9624120222       10.1562588895
  C        37.6084994981       30.8888989012       10.8986803642
  C        36.6794714825       31.1972151891       11.9040736257
  C        36.0703014766       30.1783585613       12.6338810950
  C        36.3760918835       28.8260818601       12.3814766242
  C        37.2829029299       28.5276700394       11.3461440361
  C        37.8942029676       29.5430297151       10.6177147101
  C        35.7683577587       27.7267919109       13.1653715554
  C        35.7779800248       27.7203252203       14.5873301286
  C        36.4724571314       28.7106902420       15.3506649949
  C        46.1355610570       26.6207770143       15.2815709589
  C        46.0881879678       26.5803270659       12.4736732145
  C        22.4661773086        3.2568020936       10.2557481163
  C        23.1718088026        4.3646519393       10.9708718120
  C        24.1799246912        4.0763296239       11.9049106349
  C        24.8180314656        5.1048848413       12.5946001271
  C        24.4690672476        6.4524980776       12.3740140949
  C        23.4850845133        6.7341052627       11.4073331702
  C        22.8425303224        5.7057762789       10.7176637437
  C        25.1036832635        7.5482772870       13.1507329075
  C        25.0835519017        7.5429302258       14.5736024311
  C        24.3797748356        6.5484547140       15.3239824856
  C        26.6236989693       17.8632852219        5.7799813882
  C        25.3160290239       17.9103387114        5.0573977123
  C        25.0613025371       18.9008223662        4.0956747618
  C        23.8472697197       18.9235467435        3.4118539673
  C        22.8513988125       17.9583820967        3.6657909250
  C        23.1026750042       16.9906680264        4.6569824535
  C        24.3182824246       16.9629716078        5.3392316054
  C        21.5783085360       17.9442785778        2.9009054296
  C        21.5785117856       17.9221680197        1.4780705274
  C        22.7841519704       17.7967944026        0.7180577573
  C        34.4382040899       17.1939616997        5.9208058430
  C        35.7318746011       17.1404634361        5.1787297397
  C        35.9225376203       16.1878421141        4.1656327654
  C        37.1042108166       16.1718134547        3.4298817266
  C        38.1259502639       17.1070981537        3.6864318909
  C        37.9368204441       18.0393981155        4.7246485724
  C        36.7529068206       18.0610512526        5.4581779644
  C        39.3794384425       17.1144251978        2.8991305966
  C        39.3740371652       17.1331040113        1.4774844734
  C        38.1671419950       17.2673739244        0.7221465107
  C        20.3320967344       17.9409448710        0.7688507820
  C        20.3528947211       17.9469379211        3.5823195716
  C        34.4364874949       17.2457444035       10.2198353720
  C        35.7388125495       17.1587303801       10.9423345700
  C        35.9424872435       16.1927120028       11.9395357713
  C        37.1375946784       16.1644135740       12.6536067319
  C        38.1562546925       17.1021032201       12.3926381958
  C        37.9567453286       18.0422242941       11.3643111983
  C        36.7618909077       18.0745664486       10.6514795401
  C        39.4082944876       17.1180021965       13.1798121707
  C        39.3887809752       17.1356872876       14.6008844355
  C        38.1744589065       17.2671800374       15.3457180552
  C        35.1459303431       26.6419703040       15.2910821925
  C        35.1784093377       26.6562456170       12.4819410499
  C        26.5737496616       17.8279225585       10.3247959678
  C        25.2590247402       17.8732794548       11.0318782691
  C        24.9957465265       18.8795904201       11.9738065154
  C        23.7784922943       18.9063448037       12.6489280070
  C        22.7942821516       17.9275574243       12.4047015906
  C        23.0518210260       16.9465714654       11.4299700182
  C        24.2701580729       16.9171353032       10.7538728366
  C        21.5302750774       17.9112259894       13.1774286106
  C        21.5538529692       17.9044743044       14.5990562618
  C        22.7718564364       17.7886911482       15.3415854304
  C        14.0474147638       17.8292890794       10.2889684697
  C        15.3519476529       17.8876762829       11.0139730939
  C        15.6079413474       18.8915679394       11.9612081502
  C        16.8168927016       18.9139411238       12.6541666611
  C        17.8047691343       17.9352924191       12.4225904157
  C        17.5535141720       16.9557485053       11.4430829817
  C        16.3440446054       16.9287946797       10.7515226289
  C        19.0738271958       17.9197496120       13.1921352093
  C        19.0723074443       17.9193489973       14.6148061561
  C        17.8651839222       17.8219658805       15.3760548623
  C        46.8035747392       17.2174868818       10.1583267882
  C        45.5118460754       17.1511854912       10.9026347108
  C        45.3060446815       16.1683854940       11.8833572390
  C        44.1237773427       16.1446473894       12.6188108989
  C        43.1165902393       17.1039352911       12.3962952462
  C        43.3192985915       18.0660829865       11.3883132822
  C        44.5022639227       18.0934649533       10.6535091900
  C        41.8639972732       17.1123700973       13.1873559142
  C        41.8725022442       17.1130817361       14.6097546705
  C        43.0828577228       17.2026947695       15.3669034954
  C        20.3189642737       17.9310620665       15.3236053244
  C        20.2983920587       17.8988607917       12.5104052484
  C        46.7860911742       17.2303833794        5.8897878770
  C        45.4832316584       17.1216186170        5.1744814168
  C        45.2665212243       16.1196597910        4.2165251599
  C        44.0790192256       16.0891748790        3.4896999337
  C        43.0796174471       17.0576580165        3.7047342419
  C        43.2866031263       18.0294659444        4.7013884072
  C        44.4751989267       18.0662730437        5.4231685537
  C        41.8334801652       17.0783954324        2.9082525732
  C        41.8571974017       17.0943041537        1.4872990095
  C        43.0755929930       17.1912545662        0.7438870644
  C        46.1533264381       26.6371928185        0.7263349469
  C        46.1626271920       26.6561538524        3.5359720760
  C        14.0460699585       17.8324558959        5.7089408040
  C        15.3671799082       17.9087975153        5.0192040054
  C        15.6395405827       18.9252714578        4.0913372280
  C        16.8686033401       18.9647377378        3.4367617691
  C        17.8532545255       17.9869110156        3.6839319660
  C        17.5877884302       16.9996250880        4.6503713355
  C        16.3607692327       16.9596224664        5.3085694858
  C        19.1206564899       17.9639029179        2.9149450335
  C        19.0967481937       17.9406417959        1.4933670686
  C        17.8771687003       17.8313601114        0.7523039355
  C        28.8258481249       14.1177659163       10.3988102951
  C        28.2319511134       12.9376891389       11.0913344233
  C        28.9588233431       12.1966256792       12.0350143921
  C        28.3664873099       11.1120751917       12.6791553652
  C        27.0335833965       10.7434424566       12.4044316404
  C        26.3292738703       11.4654021984       11.4240370210
  C        26.9182890215       12.5490342300       10.7789901445
  C        26.3641317240        9.6577344145       13.1590116079
  C        26.3380942053        9.6844132441       14.5799119348
  C        26.8365947061       10.7967472926       15.3296776702
  C        32.1798211138       21.2407863262       10.1444866829
  C        32.7755703428       22.4059745138       10.8632815680
  C        32.0260218100       23.0876579072       11.8344813186
  C        32.5971883138       24.1265904352       12.5629842177
  C        33.9333609883       24.5120326346       12.3408099181
  C        34.6652969156       23.8495722256       11.3373850681
  C        34.0965861603       22.8050777696       10.6108759816
  C        34.5624261616       25.5871475319       13.1413557976
  C        34.5526666367       25.5592800810       14.5629164333
  C        34.0398537969       24.4460081922       15.3009239272
  C        25.7174461956        8.6088616964       15.2932875084
  C        25.7298193803        8.6081726387       12.4801263756
  C        32.1021408463       21.2257750792        5.8796073029
  C        32.6925043236       22.3775555878        5.1362153733
  C        31.9575274249       23.0362982251        4.1383602027
  C        32.5373139877       24.0671047144        3.4022831666
  C        33.8656086858       24.4685783818        3.6456581924
  C        34.5830893606       23.8227933248        4.6707791151
  C        34.0081673409       22.7869084095        5.4023859585
  C        34.5061434376       25.5498740105        2.8618547175
  C        34.5230884864       25.5406469703        1.4400199523
  C        34.0249906600       24.4375717713        0.6776516007
  C        40.6188457465       17.1010264042        0.7660138138
  C        40.6042482667       17.1038397308        3.5758656877
  C        28.7437367142       14.0745832561        5.7874173743
  C        28.1294342752       12.9239695762        5.0598355070
  C        28.8680478730       12.2084031902        4.1047245511
  C        28.2845028825       11.1494809238        3.4138863972
  C        26.9457440005       10.7793291976        3.6520922154
  C        26.2243066076       11.4800035126        4.6366459154
  C        26.8067226060       12.5393762032        5.3302626891
  C        26.3032995949        9.6902774074        2.8775889081
  C        26.3071739171        9.7017802638        1.4557292383
  C        26.8196554082       10.8063437353        0.7054405906
  C        18.1354418139        3.1811145788       10.3171746358
  C        17.4060337777        4.2782908596       11.0156342441
  C        16.3902631596        3.9998747438       11.9430996167
  C        15.7424883748        5.0398149196       12.6065887383
  C        16.0943929543        6.3835613364       12.3669850683
  C        17.0837834042        6.6531379819       11.4032376164
  C        17.7329459622        5.6158398441       10.7381862854
  C        15.4700425799        7.4912099287       13.1300784883
  C        15.4852908488        7.4904512883       14.5517948116
  C        16.1868578740        6.4968300835       15.3049467689
  C        42.9459485874       31.8595909242       10.0729040220
  C        43.6463816807       30.7719324247       10.8168705355
  C        44.5917197952       31.0933031719       11.8031071505
  C        45.1974665053       30.0877809608       12.5507845465
  C        44.8712842228       28.7346851369       12.3357610269
  C        43.9457161389       28.4203064155       11.3223188150
  C        43.3368592407       29.4254174525       10.5742721393
  C        45.4888481916       27.6553764334       13.1389521529
  C        45.4928770675       27.6809207212       14.5606492469
  C        44.8057540125       28.6889341728       15.3072868343
  C        14.8563670488        8.5629501683       15.2641882826
  C        14.8748540905        8.5630475796       12.4515120720
  C        42.9465145700       31.9616742952        5.8089940010
  C        43.6918096237       30.8855382156        5.0955437970
  C        44.6562946835       31.1914432759        4.1231387102
  C        45.2778493060       30.1718526684        3.4054350713
  C        44.9542231220       28.8215223248        3.6431957967
  C        44.0209073503       28.5238666591        4.6541363886
  C        43.3926166957       29.5406306822        5.3662904089
  C        45.5632176891       27.7241025841        2.8579361444
  C        45.5333705463       27.7173506784        1.4366394579
  C        44.8270234710       28.7075617414        0.6836820347
  C        35.1324682301       26.6314596273        0.7360053717
  C        35.1166401135       26.6080065579        3.5457668192
  C        18.1487317756        3.2470911919        5.7066417737
  C        17.4302546587        4.3439169681        4.9973159049
  C        16.4149165881        4.0526670795        4.0738667919
  C        15.7666293242        5.0833052009        3.3984824528
  C        16.1214459748        6.4285308465        3.6210531369
  C        17.1129917384        6.7118981381        4.5781485474
  C        17.7606381284        5.6829808650        5.2579342105
  C        15.4908691494        7.5241976355        2.8486274908
  C        15.4965348022        7.5074468919        1.4274928700
  C        16.1931889845        6.5056944272        0.6807617160
  H        10.6724117684       12.4653032775        3.9051250099
  H        11.6946972408       10.5505122979        2.6632617776
  H        15.3923034191       11.1694788463        4.7714429437
  H        14.3518453074       13.0722288699        6.0166055467
  H        13.3761670608       11.6311145003        1.2013411676
  H        50.3228187710       22.7481768465        3.9866882921
  H        49.3197461534       24.6226708392        2.6806994162
  H        45.6425525028       24.1616471721        4.8641980388
  H        46.6634754996       22.2906442934        6.1724672757
  H        47.6299403260       23.5758992208        1.2462501947
  H        14.8727348844        8.5885720445        4.6085456274
  H        50.2870925919       22.7023332443       12.0606477478
  H        49.2692380262       24.5752494463       13.3606869391
  H        45.6109750531       24.1099010882       11.1455636593
  H        46.6530478887       22.2544839909        9.8312678194
  H        47.6079214466       23.5518730520       14.7969103250
  H        40.6416667063       17.0898189254       11.4237912429
  H        48.6872653052       14.0949052136        7.8000613113
  H        10.6811346403       12.4663734341       12.0929095153
  H        11.6893715093       10.5244231800       13.2966189824
  H        15.3937631428       11.1594526333       11.2062061014
  H        14.3653510398       13.0878839554        9.9909676329
  H        13.3756780670       11.6220494311       14.7531249373
  H        47.9302436338       14.2184353129        9.7109502514
  H        47.7801581999       14.3738717599        6.4955121058
  H        49.0838300480       18.5522707686       10.8674917806
  H        10.4162869763       14.1343284421        7.9988202688
  H        24.4753819209        3.0299935461        3.9065530776
  H        25.6088747841        4.8888113119        2.6741860446
  H        23.2290439652        7.7545145006        4.8243649382
  H        22.1145549739        5.8861283926        6.0590696151
  H        23.8104074672        5.7937489235        1.2363587334
  H        36.3762490619       32.1873936970        3.9672842890
  H        35.2517917919       30.3622916648        2.6878646710
  H        37.5144035935       27.4393828872        4.8877927008
  H        38.6190710584       29.2773567049        6.1757808442
  H        37.0271271425       29.4487836683        1.2738363646
  H        25.7084955294        8.6133371285        4.6383001859
  H        36.4556722136       32.2413197562       12.1109132112
  H        35.3442616233       30.4226681084       13.4061571175
  H        37.5307691080       27.4875935661       11.1448144445
  H        38.6169291435       29.3180499774        9.8372140951
  H        37.0472115038       29.4680539714       14.8253944577
  H        46.1098115025       26.5878544775       11.3856424754
  H        44.6682818501       35.1162012721        7.8140031409
  H        24.4537539392        3.0371782242       12.0729620166
  H        25.6016237191        4.8727730139       13.3127697198
  H        23.2031573541        7.7694679623       11.2268136365
  H        22.0669810871        5.9221110382        9.9864860467
  H        23.8126774475        5.7932062963       14.7876446173
  H        44.9538875941       34.3904287639        9.6951915357
  H        44.9018820564       34.2069708357        6.4905579965
  H        40.6661889193       33.2093529256       10.8532960216
  H        23.1506054897        1.9581187327        8.0039416003
  H        25.8272664384       19.6469169063        3.8972281735
  H        23.6561563831       19.6981937776        2.6722881540
  H        22.3463510566       16.2358820944        4.8626305111
  H        24.5219945382       16.2015959343        6.0885376990
  H        23.7251193715       17.6761592294        1.2470472766
  H        35.1265444385       15.4748702146        3.9629032448
  H        37.2514154470       15.4247136583        2.6529971004
  H        38.7174365836       18.7698630340        4.9270434221
  H        36.5901086641       18.7960066529        6.2431644984
  H        37.2305832485       17.4004694859        1.2557808822
  H        20.3591243769       17.9872760463        4.6701806503
  H        35.1489385789       15.4798353233       12.1523508629
  H        37.2946581510       15.4104660843       13.4218580748
  H        38.7361087462       18.7728493646       11.1577831626
  H        36.5880670128       18.8170580185        9.8763421758
  H        37.2429081427       17.3993716105       14.8035921245
  H        35.1514720554       26.6821491967       11.3942274687
  H        28.4981098600       21.0819407561        7.8850729131
  H        25.7571411773       19.6347818665       12.1563490318
  H        23.5744246432       19.6909953391       13.3743316577
  H        22.3002240564       16.1842089038       11.2352964585
  H        24.4842406274       16.1481383696       10.0154691063
  H        23.7034016743       17.6615867761       14.7982880455
  H        28.9998776539       21.7274224851        9.7422430178
  H        29.1941802253       21.7192308822        6.5692327833
  H        32.0663963005       18.6004115322       10.9730552375
  H        27.4017623908       19.0696695295        8.0759474370
  H        14.8489705807       19.6501461891       12.1391124666
  H        17.0111876783       19.6989414678       13.3818744641
  H        18.3054234369       16.1921189352       11.2547333550
  H        16.1392819933       16.1590319928       10.0112277936
  H        16.9226243962       17.7063859353       14.8489095377
  H        46.0899997842       15.4364356524       12.0629823328
  H        43.9661459430       15.3745683370       13.3707908057
  H        42.5503033914       18.8152537106       11.2115548318
  H        44.6742020191       18.8510294445        9.8924109394
  H        44.0243587512       17.3119726871       14.8362444983
  H        20.2927693463       17.9267347128       11.4222053537
  H        46.0445083907       15.3797579095        4.0428806584
  H        43.9131061246       15.3118351560        2.7469950728
  H        42.5191841622       18.7813719279        4.8729356768
  H        44.6572138997       18.8352647702        6.1698823514
  H        44.0116688239       17.2906324933        1.2858135875
  H        46.1996722789       26.6828014362        4.6234085613
  H        52.7413290222       21.0627188480        8.1946989451
  H        14.8781587824       19.6781852246        3.8998303769
  H        17.0787829002       19.7560292244        2.7203869196
  H        18.3394079393       16.2384217525        4.8492334532
  H        16.1408241900       16.1843432847        6.0384772351
  H        16.9435355400       17.7230700049        1.2960593121
  H        52.3229706056       21.6734618900        6.2941356922
  H        52.0136820486       21.7024054475        9.4957073702
  H        49.0679385756       18.6077427590        5.2040626188
  H        13.2477664359       19.0161701569        7.9774355447
  H        29.9861367899       12.4812854264       12.2512032501
  H        28.9328074613       10.5380567074       13.4094218437
  H        25.2992962003       11.1925651688       11.2036403831
  H        26.3701620522       13.1256703443       10.0382282441
  H        27.2078221183       11.6643024816       14.7926413161
  H        30.9991358913       22.7782784581       12.0133505273
  H        32.0107743881       24.6543876557       13.3119442573
  H        35.6991852738       24.1386693508       11.1599520770
  H        34.6669797835       22.2685274079        9.8561374196
  H        33.6807200094       23.5791400824       14.7537706384
  H        25.7672413333        8.5896354364       11.3922806943
  H        30.9346706464       22.7202940434        3.9462232661
  H        31.9604020672       24.5797093108        2.6355406169
  H        35.6112897733       24.1217207984        4.8640310702
  H        34.5674166610       22.2661162766        6.1761588891
  H        33.6546514808       23.5639325393        1.2062375628
  H        40.5998669372       17.0624930879        4.6633902894
  H        32.5171708632       14.1531924601        8.2430402825
  H        29.9019765138       12.4922928276        3.9226833565
  H        28.8649085269       10.5916701495        2.6821690226
  H        25.1885411715       11.2067637937        4.8276724073
  H        26.2459907502       13.0966643698        6.0769326164
  H        27.1763875591       11.6812682101        1.2410019752
  H        33.2947369851       14.2006144426        6.4398248903
  H        33.4093647898       14.3701490909        9.6123758601
  H        32.1054430450       18.5216890128        5.1581519517
  H        30.2347746406       14.1923513632        8.0715785869
  H        16.1181881635        2.9633684749       12.1294495561
  H        14.9530025415        4.8204018101       13.3221976522
  H        17.3662310524        7.6860214872       11.2101863178
  H        18.5150397475        5.8185848614       10.0104253644
  H        16.7534024027        5.7394907416       14.7714361807
  H        44.8278422069       32.1404064389       11.9774024913
  H        45.9372196320       30.3415975480       13.3068202273
  H        43.6833202740       27.3781979039       11.1519894651
  H        42.6004842468       29.1900584821        9.8093819854
  H        44.2304745832       29.4367580107       14.7689824816
  H        14.8511917157        8.5463854199       11.3632883314
  H        44.8997646791       32.2341273566        3.9316023926
  H        46.0246971666       30.4131051447        2.6521463876
  H        43.7641728039       27.4841172494        4.8458892918
  H        42.6462921757       29.3178512915        6.1249102371
  H        44.2685790839       29.4704925580        1.2182692410
  H        35.0735243828       26.6207905718        4.6332051871
  H        36.6051324727       35.1341619850        8.1805430907
  H        16.1436748541        3.0131126482        3.9042777486
  H        14.9741762857        4.8564917835        2.6885320170
  H        17.3966667489        7.7473456834        4.7548933633
  H        18.5436288370        5.8934617509        5.9825663893
  H        16.7646991709        5.7554894131        1.2191657764
  H        36.2785529644       34.4827560197        6.2730359324
  H        36.3806220800       34.2093321439        9.4995994537
  H        40.5806658736       33.2030697012        5.1535192565
  H        17.4710175752        1.9477359712        7.9742143048
  H        29.2751828247       19.4488065961       12.5471027735
  H        29.3446067971       19.3651901708        3.5292631324
  H        30.8085539395       15.6374708371        3.6553336225
  H        30.9748183485       15.5146581787       12.3677777801
  H        28.0246486400       18.1243177672       14.3703582443
  H        29.2750568444       15.7937990548       14.6885113677
  H        31.2121457976       19.8024283306        1.4588994564
  H        32.8112689966       17.4965223724        1.4204093912
  H        33.4209448056       17.3308237881       14.3885930495
  H        18.8530425906        0.8690538739       12.3351403600
  H        40.5278438156       35.2286856753        3.9519408153
  H        42.3245267028       34.4191376384        3.5901904482
  H        22.0876454108        0.6920950836       12.3518801116
  H        11.5968669980       18.7129005039       12.3825555564
  H        52.2652248593       18.4313099881        3.6774395908
  H        49.2555756990       16.4766839151        3.5842511658
  H        10.1507593865       15.7981914407       12.2925572482
  H        50.8504172302       17.6924500547        3.9541569450
  H        10.0464277264       17.3946141437       12.0519257151
  H        20.2141377964        0.0022466136       12.0420960532
  H        39.1835468796       36.1241773903        3.6862520696
 Ni        30.9031149160       17.8430516946        2.8323042925
 Ni        31.1140540590       16.6940896606       -0.1635123599
 Ni        29.6343358039       18.7621026468        0.0775936845
 Ni        30.0456178553       17.4190915149       13.1587008798
  O        10.6500531739       14.3650761353        5.4858937954
  O        12.6132235417       14.6575511616        6.5839436696
  O        49.1479297255       16.8458940009        7.9898232588
  O        50.3502854893       20.9357915958        5.6480511826
  O        48.3485636468       20.5932661410        6.6659566039
  O        11.0519128283       17.0537637243        6.5008129020
  O        50.3210140431       20.8816435801       10.4068690010
  O        48.3467252535       20.5867423675        9.3271700288
  O        49.5436955298       18.2484003920       10.0682627012
  O        12.3591624997       18.6246579926        7.9997060606
  O        48.6933169625       14.1485066279        6.7513497774
  O         8.2099088027       14.2104539054        9.3225756428
  O        10.7353036176       14.5067210580       10.6642940648
  O        12.5718328468       14.5828224853        9.3285170983
  O        22.8444583956        2.0433377328        5.4869277673
  O        21.6056267438        3.5924257300        6.5894899783
  O        42.0583152667       34.1375875238        7.9791347199
  O        37.9817650098       33.1381963602        5.5725685243
  O        39.2181818435       31.5762531245        6.6667191018
  O        20.3085408010        1.0400031677        6.5022860303
  O        38.0247340639       33.1859133287       10.4151568369
  O        39.2192857741       31.5838470081        9.3263387317
  O        40.6523224837       33.7694785089       10.0602934627
  O        18.2555642403        1.3763663397        7.9968162426
  O        44.6221596282       35.1006161107        6.7588022824
  O        24.2054036528        0.0000145872        9.3207949746
  O        22.7533712260        2.0579893473       10.5841697721
  O        21.6255911230        3.5971478248        9.3445348378
  O        27.4991563128       18.7543070162        5.4962700389
  O        26.7663410985       16.9346697555        6.6520298917
  O        30.6651409626       19.3993381922        8.0474174313
  O        33.5840145218       16.2779347710        5.6665782023
  O        34.2753345507       18.1686047102        6.7365188521
  O        29.5762181095       17.0606692629        6.5834308239
  O        33.5536185882       16.3508327562       10.4857736975
  O        34.2986518869       18.2274603887        9.4135071074
  O        31.6546453297       18.3159536032       10.1414729337
  O        30.3255154162       15.1595040288        8.0772090606
  O        28.5532315639       21.0332132613        6.8339412569
  O        28.5135192335       20.9562125629        9.4049486856
  O        27.4596540892       18.6791602338       10.6584732201
  O        26.6951576596       16.9285414669        9.4125772878
  O        13.1488462666       18.6929561399       10.5874387983
  O        13.9197457341       16.9163795147        9.4053485009
  O        50.5962615045       19.3502187311        8.0205830946
  O        47.6827735507       16.3270242677       10.4174548714
  O        46.9505529195       18.1756577173        9.3254813895
  O        11.0699003065       17.0154680735        9.4895785449
  O        47.6768372850       16.3353953424        5.6534328124
  O        46.9268621529       18.2356720018        6.6643369553
  O        49.5688519053       18.3176958302        5.9824107284
  O        10.3187140649       15.1001579152        7.9970855538
  O        52.6707610685       21.0278433251        9.2418127303
  O        12.1468312535       20.8911945716        6.6732997352
  O        13.1079862984       18.6137220999        5.3256889574
  O        13.9574069229       16.9872263263        6.6652301940
  O        30.0079532534       14.5006922193       10.7324807655
  O        28.0958184625       14.6540421144        9.4964327426
  O        32.1388614447       16.8564351106        8.0723864547
  O        30.9653992135       20.9524329748       10.4080647815
  O        32.9472057315       20.6010841407        9.3383786347
  O        29.5669307176       17.0770958723        9.5726173515
  O        30.8727865907       20.9422569560        5.6597756864
  O        32.8778901085       20.5865464360        6.6653968517
  O        31.6864830280       18.2513031635        5.9940573934
  O        28.2895638260       18.6762865171        8.0711920393
  O        32.4913390970       14.2152162224        9.3260975004
  O        32.4019103714       14.2164874773        6.8232503958
  O        29.9120232826       14.4513993434        5.4227511301
  O        28.0526989286       14.5843038589        6.7405923690
  O        17.8892818111        1.9666932800       10.6627791556
  O        18.9563350449        3.5271947774        9.4079910867
  O        39.1686482686       34.1388906158        7.9972219662
  O        43.2802069668       33.0589905827       10.3317420385
  O        42.0345578252       31.5064502842        9.2416465499
  O        20.3178029825        1.0368967960        9.4800683848
  O        43.2760888712       33.1826200606        5.5749076707
  O        42.0052912444       31.5841173937        6.5829804939
  O        40.5790607648       33.7751233014        5.9360829310
  O        22.3674511679        1.3848990299        7.9980614521
  O        36.6727726448       35.0998390483        9.2332329284
  O        16.4456319354        0.0643903875        6.6683311334
  O        17.9365464541        2.0434154118        5.3264210668
  O        18.9191691444        3.5931131667        6.6660151709
  O        29.8559138955       18.7633580469        4.1016522751
  O        29.8710415137       18.9076209866       11.9921907928
  O        31.2217136387       16.4108951461        4.0810977818
  O        31.2916345478       16.3989446667       12.0839106749
  O        31.9792340720       16.9970101861        1.4956633936
  O        30.1814777124       15.9791625290       14.3829902593
  O        32.8360876349       16.5568807614       14.4113419750
  O        30.4262248502       19.2699150077        1.6779443013
  O        28.9377204921       18.4609257615       14.3338948928
  O        39.4566072786       35.2435907397        4.0020099270
  O        19.1409368837        0.0045007542       11.9905737051
  O        41.9693072245       35.1723656294        4.0871824723
  O        21.6913035436       -0.0692513259       11.8960271527
  O        51.3652870860       18.6143025386        4.0054047490
  O        10.7510849531       18.7471042058       11.9049335674
  O        50.0798650819       16.4127639285        4.0917414641
  O         9.5247664098       16.4830260809       11.9912196244
 Zr         9.2978020133       16.0526443132        6.1825147591
 Zr        49.8369901626       16.0066973708        9.7464242978
 Zr        22.0733115682        0.0303000340        6.1890749434
 Zr        42.4610992859       35.1540741961        9.8013465905
 Zr        29.6077725887       19.0722411865        6.2590835807
 Zr        29.5758931806       19.1827869672        9.8468535221
 Zr        11.0387547788       19.0517994511        9.8278751423
 Zr        11.0445937058       19.1546956405        6.2508695491
 Zr        31.3574753141       16.1218603672        9.8437402166
 Zr        31.3893230285       16.0205119046        6.2521171536
 Zr        18.6012509305       -0.0008978356        9.7631620566
 Zr        18.5066972213       -0.0070281625        6.2138652033
 Zr        12.3031965914       16.3236556552        7.9904000757
 Zr        48.6172232528       18.8331023425        8.0104821243
 Zr        20.3159169540        2.4743546670        7.9911592607
 Zr        40.6438823226       32.6876187154        7.9782617441
 Zr        28.3409060471       16.3432462769        8.0779777715
 Zr        32.6305334521       18.8451063358        8.0462262682
  H        32.4152156438       16.5279130234       13.5035582725
  H        28.7018752389       19.8693580527        0.2310691025
  H        29.8131970344       17.0264988704        0.5408472612
