     566
 i =      140, E =     -4712.2335991983
  C        11.8583684877       14.0535498428        5.7416090924
  C        12.4559084207       12.8904686428        5.0233060969
  C        11.7045403814       12.1720735392        4.0810055414
  C        12.2809403275       11.1098508610        3.3886562440
  C        13.6212544945       10.7394710075        3.6169815044
  C        14.3540388688       11.4424462014        4.5911875692
  C        13.7811026339       12.5073885473        5.2827202249
  C        14.2608877442        9.6488449204        2.8435893554
  C        14.2564127159        9.6568212300        1.4218721646
  C        13.7433558464       10.7589642452        0.6679129599
  C        49.1262102168       21.2334923253        5.8798133035
  C        48.5492580338       22.4012369396        5.1526958948
  C        49.2994424179       23.0688251186        4.1719811941
  C        48.7324827531       24.1078623463        3.4386982608
  C        47.4017830139       24.5091701608        3.6669835343
  C        46.6706179161       23.8599400008        4.6801107211
  C        47.2330725404       22.8150727479        5.4095368195
  C        46.7716881734       25.5869062178        2.8696476474
  C        46.7609643270       25.5573623152        1.4478840186
  C        47.2608951906       24.4422305400        0.7044438837
  C        14.8603687951        8.5704637276        0.7086304135
  C        14.8915461584        8.5968063686        3.5202466382
  C        49.1129429234       21.2033388161       10.1451906306
  C        48.5275682926       22.3646870207       10.8723457897
  C        49.2668472097       23.0254983158       11.8651660594
  C        48.6905256989       24.0600286630       12.5966544287
  C        47.3600642635       24.4567161305       12.3585389816
  C        46.6395680966       23.8116573389       11.3351694568
  C        47.2130927591       22.7757369196       10.6033683086
  C        46.7216985238       25.5317564613       13.1495459111
  C        46.7334498320       25.5281804659       14.5712525060
  C        47.2487448855       24.4289273483       15.3276778395
  C        40.6117870859       17.0740776135       15.3169605366
  C        40.6361970243       17.1344352870       12.5058761112
  C        11.8826392366       14.0864099197       10.2854493785
  C        12.4718236390       12.9102681770       10.9894473111
  C        11.7145924263       12.1776860812       11.9162691653
  C        12.2811282659       11.0951970183       12.5847157815
  C        13.6196323653       10.7207432623       12.3522022982
  C        14.3571769732       11.4355162251       11.3904619981
  C        13.7918054337       12.5167128491       10.7177574039
  C        14.2534173957        9.6241641092       13.1227284883
  C        14.2524475734        9.6443291753       14.5445866885
  C        13.7427405560       10.7533603658       15.2916547141
  C        22.5218188369        3.2505570470        5.7539509178
  C        23.2538498925        4.3583663429        5.0643760600
  C        24.2614372338        4.0789918440        4.1279415659
  C        24.9050723545        5.1170724127        3.4557336299
  C        24.5613683563        6.4632915451        3.6958004309
  C        23.5826783287        6.7341524722        4.6705395837
  C        22.9344080861        5.6975448533        5.3415184546
  C        25.1753135316        7.5692330565        2.9150361431
  C        25.1240852949        7.5651787467        1.4921430747
  C        24.4097006810        6.5673178991        0.7552639894
  C        38.2999171482       31.9269136698        5.8517118702
  C        37.5657088936       30.8342290420        5.1515782505
  C        36.5985599246       31.1312150730        4.1787240375
  C        35.9794240435       30.1063955613        3.4684083153
  C        36.3121249838       28.7579613742        3.7068857351
  C        37.2474446730       28.4687128058        4.7187801071
  C        37.8702801322       29.4921018073        5.4285710532
  C        35.7157045048       27.6632968885        2.9084601530
  C        35.7434681726       27.6848177874        1.4852596197
  C        36.4429931723       28.6928502059        0.7519628056
  C        25.7345895696        8.6358351526        0.7605610682
  C        25.7969517803        8.6402300786        3.5738808054
  C        38.3304421798       31.9601671314       10.1603319037
  C        37.6159867801       30.8860678479       10.9083359499
  C        36.6866273516       31.1913652541       11.9151482608
  C        36.0821551200       30.1716733537       12.6481725760
  C        36.3907754169       28.8185611806       12.3994625532
  C        37.2996026117       28.5236066366       11.3638963429
  C        37.9062732926       29.5396373978       10.6323160439
  C        35.7838760735       27.7171872084       13.1819194302
  C        35.7773058507       27.7131643466       14.6061665227
  C        36.4589836128       28.7068460153       15.3742773152
  C        46.1355081997       26.6208921293       15.2813343764
  C        46.0877902039       26.5801151976       12.4734490998
  C        22.4588869937        3.2582991103       10.2625169776
  C        23.1452690400        4.3694894299       10.9930789662
  C        24.1423435240        4.0878278054       11.9409228875
  C        24.7644260676        5.1200770778       12.6404568226
  C        24.4109514646        6.4662060316       12.4160250439
  C        23.4346530300        6.7407300563       11.4388917622
  C        22.8081541892        5.7088343960       10.7399335953
  C        25.0434495935        7.5688114286       13.1855253006
  C        25.0563187390        7.5645072229       14.6095136465
  C        24.3769011932        6.5672424798       15.3783779031
  C        26.5580711131       17.8170096579        5.7544499333
  C        25.2512890066       17.8697402209        5.0428063466
  C        24.9985993195       18.8671590152        4.0877135804
  C        23.7873011052       18.8910873619        3.4029328970
  C        22.7973050971       17.9186834511        3.6485624245
  C        23.0435338523       16.9474116121        4.6369698137
  C        24.2556912043       16.9198848596        5.3230331523
  C        21.5345277332       17.9054044331        2.8738204772
  C        21.5507354077       17.9008983713        1.4520033248
  C        22.7639660898       17.7775215774        0.7040726734
  C        34.3427401282       17.1481420481        5.8043065496
  C        35.6418809628       17.0587190000        5.0897581766
  C        35.8429572613       16.1181033835        4.0656256719
  C        37.0464217511       16.0893636067        3.3657432869
  C        38.0829169201       16.9988131506        3.6633819043
  C        37.8847678925       17.9099707095        4.7201707820
  C        36.6822948076       17.9449352445        5.4189329177
  C        39.3458297210       17.0206642231        2.8913373355
  C        39.3480651256       17.0604321922        1.4677065154
  C        38.1464867029       17.2063827745        0.7072128866
  C        20.3118588516       17.9347141974        0.7325352869
  C        20.3050348369       17.8986487402        3.5448240845
  C        34.4246469557       17.2153553899       10.2111318722
  C        35.7336929873       17.1353073879       10.9158774959
  C        35.9438952447       16.1704582662       11.9139767959
  C        37.1382840090       16.1476105681       12.6278238116
  C        38.1537506724       17.0909903838       12.3711016027
  C        37.9496637721       18.0274376994       11.3389085892
  C        36.7550140216       18.0536507634       10.6236988864
  C        39.4021222171       17.1113092837       13.1661860668
  C        39.3764626737       17.1084104590       14.5894796154
  C        38.1597052346       17.2281399107       15.3300791849
  C        35.1455758567       26.6313713799       15.3070651630
  C        35.2093442629       26.6394107632       12.4955978057
  C        26.5997768611       17.8030546353       10.3311803741
  C        25.2919836207       17.8683535747       11.0434569301
  C        25.0407739305       18.8717843789       11.9915838112
  C        23.8175655287       18.9148183740       12.6560300044
  C        22.8176375451       17.9559893021       12.3953117489
  C        23.0658433124       16.9777901709       11.4152838344
  C        24.2880548684       16.9320021324       10.7495226904
  C        21.5460684322       17.9487252764       13.1551948233
  C        21.5558660291       17.9232632599       14.5761807553
  C        22.7658387257       17.7877104105       15.3279844386
  C        14.0492420688       17.8355462889       10.2805590553
  C        15.3621438925       17.9093068533       10.9883695767
  C        15.6261115415       18.9311439583       11.9135131894
  C        16.8413236268       18.9657524623       12.5944567968
  C        17.8247995043       17.9811251757       12.3723010829
  C        17.5675188693       16.9857467606       11.4112554223
  C        16.3520278759       16.9472244518       10.7310280281
  C        19.0902979995       17.9657038537       13.1467946463
  C        19.0742822327       17.9494330752       14.5686579917
  C        17.8583466258       17.8495599766       15.3156832013
  C        46.8025012312       17.2190562051       10.1603926611
  C        45.5125323235       17.1559250796       10.9068220267
  C        45.3090153885       16.1797243876       11.8951087005
  C        44.1268225643       16.1574161355       12.6305393001
  C        43.1148530630       17.1110092042       12.4015606264
  C        43.3166731011       18.0675724937       11.3873398747
  C        44.4997301461       18.0939430839       10.6526843997
  C        41.8593455055       17.1148263171       13.1876325365
  C        41.8607903006       17.0984329445       14.6115087683
  C        43.0653257229       17.1898821374       15.3762117246
  C        20.3137602034       17.9461255644       15.2884136270
  C        20.3204010654       17.9490776543       12.4761482212
  C        46.7788465024       17.2278991175        5.8882349733
  C        45.4714073639       17.1080477177        5.1772090279
  C        45.2596792906       16.1065907780        4.2160596016
  C        44.0684569502       16.0616056166        3.4946211530
  C        43.0525740579       17.0131458080        3.7149801311
  C        43.2547254013       17.9832790658        4.7157007792
  C        44.4481814040       18.0358101563        5.4315451207
  C        41.8041863211       17.0201982048        2.9153836554
  C        41.8328350941       17.0475298038        1.4918230675
  C        43.0518724875       17.1647444405        0.7540873586
  C        46.1531614501       26.6373239874        0.7260876256
  C        46.1617036369       26.6560258117        3.5357294909
  C        14.0376166897       17.8244020938        5.7028630233
  C        15.3473118214       17.8845487759        4.9933994806
  C        15.6185435444       18.9069003881        4.0722971586
  C        16.8392944478       18.9383214458        3.4031346827
  C        17.8129586956       17.9459622327        3.6308719901
  C        17.5463297191       16.9472595656        4.5846536959
  C        16.3279966241       16.9158513150        5.2579135528
  C        19.0806467647       17.9277839351        2.8659278666
  C        19.0696576582       17.9285417973        1.4448042231
  C        17.8562911368       17.8394817152        0.6918259676
  C        28.7907198643       14.0804483074       10.3261347324
  C        28.1737558144       12.9190242346       11.0253958916
  C        28.8897030790       12.1975514835       11.9936267222
  C        28.2880481798       11.1339824564       12.6612976624
  C        26.9539776892       10.7650686338       12.3902886326
  C        26.2589855390       11.4690104446       11.3891654902
  C        26.8582465313       12.5329451177       10.7183382155
  C        26.2887518955        9.6888604179       13.1633222834
  C        26.2945120089        9.7153295415       14.5854134571
  C        26.7989693590       10.8320799590       15.3238032558
  C        32.1909534457       21.2419245598       10.1399265034
  C        32.7877555670       22.4003946680       10.8608488817
  C        32.0323495030       23.1104878673       11.8094740026
  C        32.6103756254       24.1393185933       12.5458047078
  C        33.9582525050       24.4988694340       12.3483884381
  C        34.6955500883       23.8133046307       11.3635715411
  C        34.1229326485       22.7722871458       10.6356468407
  C        34.5859137691       25.5725225518       13.1515943018
  C        34.5606966542       25.5465666499       14.5745737480
  C        34.0483494861       24.4319649348       15.3082275655
  C        25.7020450625        8.6337873874       15.3145816861
  C        25.6466710634        8.6335587829       12.5006133585
  C        32.1405861060       21.1649619840        5.8758512427
  C        32.7265888702       22.3215897554        5.1465014839
  C        31.9958358316       22.9610743342        4.1311297463
  C        32.5667415714       23.9998896508        3.4010649534
  C        33.8833481783       24.4317912057        3.6617982697
  C        34.5948539166       23.8047632260        4.7048157679
  C        34.0297692967       22.7605349963        5.4322964557
  C        34.5151678457       25.5189019311        2.8790584765
  C        34.5260585095       25.5181511422        1.4541472797
  C        34.0335233320       24.4175032240        0.6863585621
  C        40.5974528221       17.0484420172        0.7629611401
  C        40.5692980943       17.0220545318        3.5749324864
  C        28.8421010498       14.1670592210        5.6890768948
  C        28.2441942692       13.0033864188        4.9733393938
  C        28.9542503217       12.3119508679        3.9789676475
  C        28.3713837083       11.2262601515        3.3263677854
  C        27.0607081565       10.8041005191        3.6352625091
  C        26.3725230660       11.4830952163        4.6593361457
  C        26.9529298180       12.5655712815        5.3164821480
  C        26.4006462085        9.7042376579        2.8856069833
  C        26.3524813340        9.7226987197        1.4631578370
  C        26.8244080761       10.8367831829        0.6994581873
  C        18.1357183205        3.1807759742       10.3169099101
  C        17.4063886475        4.2781173154       11.0155991768
  C        16.3907556751        3.9996560368       11.9431663341
  C        15.7429350789        5.0395412797       12.6067485160
  C        16.0946515551        6.3833036809       12.3670749867
  C        17.0839555064        6.6529411376       11.4032552931
  C        17.7331348830        5.6156750291       10.7381367009
  C        15.4701818030        7.4909524457       13.1301178829
  C        15.4855705639        7.4903884612       14.5518387121
  C        16.1871559980        6.4968217676       15.3050483812
  C        42.9459079046       31.8595570337       10.0728044815
  C        43.6463098566       30.7719492905       10.8167499882
  C        44.5919984632       31.0932410140       11.8026739352
  C        45.1977148262       30.0876669518       12.5502815378
  C        44.8711470020       28.7346237275       12.3354952532
  C        43.9451440432       28.4203195739       11.3224385003
  C        43.3363056726       29.4254845074       10.5744586447
  C        45.4886931550       27.6553209243       13.1386912583
  C        45.4928803356       27.6810379060       14.5603784998
  C        44.8057896415       28.6891348081       15.3069378616
  C        14.8565849912        8.5628981061       15.2641761191
  C        14.8746052787        8.5625467430       12.4515108853
  C        42.9463412757       31.9616224246        5.8089904785
  C        43.6914392042       30.8855392805        5.0953392482
  C        44.6563379217       31.1914097351        4.1233302611
  C        45.2777671670       30.1718184113        3.4055358062
  C        44.9536140993       28.8215313806        3.6428451936
  C        44.0197357635       28.5238819294        4.6532569330
  C        43.3915662123       29.5406590295        5.3654883684
  C        45.5626591381       27.7241264176        2.8576176702
  C        45.5331918143       27.7175155124        1.4363236779
  C        44.8269824908       28.7077933500        0.6833301395
  C        35.1278693663       26.6166526016        0.7531729173
  C        35.1237414844       26.5783667504        3.5646217979
  C        18.1488445472        3.2467506112        5.7066847419
  C        17.4300172240        4.3436968191        4.9976070740
  C        16.4149856774        4.0523629324        4.0738554032
  C        15.7666320300        5.0829336641        3.3983890234
  C        16.1210247436        6.4282234884        3.6212319841
  C        17.1121469470        6.7116604857        4.5787481367
  C        17.7598936526        5.6828022866        5.2585636112
  C        15.4905374768        7.5239166559        2.8487145263
  C        15.4965782667        7.5073635820        1.4275624760
  C        16.1933462833        6.5056585502        0.6808679537
  H        10.6725983087       12.4666103554        3.9035180905
  H        11.6947859331       10.5517656902        2.6617012725
  H        15.3908063458       11.1672766097        4.7735594332
  H        14.3501776098       13.0699798956        6.0189453890
  H        13.3763698520       11.6311296154        1.2011741838
  H        50.3222611623       22.7490042157        3.9875075215
  H        49.3190038802       24.6233152044        2.6812782721
  H        45.6409256941       24.1602952134        4.8628574133
  H        46.6618190202       22.2894147946        6.1711718730
  H        47.6291703013       23.5757596753        1.2461650403
  H        14.8716342287        8.5879186412        4.6085490632
  H        50.2869172120       22.7026910652       12.0599930755
  H        49.2689136996       24.5755199493       13.3601350734
  H        45.6100774835       24.1087241007       11.1462885693
  H        46.6521231069       22.2533977342        9.8320236579
  H        47.6073661353       23.5517136478       14.7968234704
  H        40.6464359316       17.1101841945       11.4177853391
  H        48.6866227832       14.0951121444        7.7997651501
  H        10.6813638247       12.4672921542       12.0942530913
  H        11.6894711746       10.5253047171       13.2979282616
  H        15.3922946117       11.1569514745       11.2037982685
  H        14.3638316044       13.0854731969        9.9885061410
  H        13.3758747699       11.6219478529       14.7530015597
  H        47.9298388908       14.2184201553        9.7107862439
  H        47.7799733186       14.3740896667        6.4946651118
  H        49.0818049481       18.5519453911       10.8667201899
  H        10.4150637787       14.1344502125        7.9987906238
  H        24.5191811276        3.0400070039        3.9341247058
  H        25.6830540515        4.8922158248        2.7291603129
  H        23.3044845983        7.7675209071        4.8674852363
  H        22.1578461339        5.9051712456        6.0739585991
  H        23.8577894380        5.8092622345        1.3033553737
  H        36.3570927721       32.1728847213        3.9806481360
  H        35.2303596400       30.3413977123        2.7154233503
  H        37.5129972921       27.4312963410        4.9115077030
  H        38.6186962406       29.2751839635        6.1870632417
  H        37.0016700810       29.4455101396        1.3004914277
  H        25.8537514790        8.6208865030        4.6609348306
  H        36.4574797571       32.2347080113       12.1201876970
  H        35.3554078337       30.4163675003       13.4196693704
  H        37.5529970211       27.4844972936       11.1643749892
  H        38.6293439713       29.3143331542        9.8521820182
  H        37.0310730386       29.4694798736       14.8538096548
  H        46.1091028436       26.5874080342       11.3854088043
  H        44.6680404472       35.1160389442        7.8137894828
  H        24.4225637455        3.0506366506       12.1108271360
  H        25.5428781037        4.8915974681       13.3653026057
  H        23.1473799098        7.7740852323       11.2552499262
  H        22.0400568997        5.9208701272        9.9996860141
  H        23.7988226206        5.8097816213       14.8568317329
  H        44.9530682202       34.3902695474        9.6952731588
  H        44.9001752126       34.2063568739        6.4904552406
  H        40.6656034961       33.2089994962       10.8529518905
  H        23.1512137912        1.9582400283        8.0064677715
  H        25.7615061107       19.6181116159        3.8965559033
  H        23.5933190177       19.6687280254        2.6674517571
  H        22.2876216910       16.1900539950        4.8341924850
  H        24.4603608341       16.1562189195        6.0695764428
  H        23.6985903987       17.6411944615        1.2404261406
  H        35.0406103632       15.4258252451        3.8206567060
  H        37.1968546718       15.3542992100        2.5782075932
  H        38.6732162233       18.6205318562        4.9594241844
  H        36.5174389067       18.6682504512        6.2137971517
  H        37.2056166281       17.3359469923        1.2339068832
  H        20.3009821860       17.9248284071        4.6330287540
  H        35.1515731668       15.4576665699       12.1303601213
  H        37.2967050135       15.3952542025       13.3972256774
  H        38.7245552852       18.7627688392       11.1321916483
  H        36.5814626161       18.7965564977        9.8487698686
  H        37.2291509204       17.3731014105       14.7890852197
  H        35.1956509182       26.6612931694       11.4074772107
  H        28.5035871535       21.0949915688        7.7966492514
  H        25.8137286600       19.6121629542       12.1867871947
  H        23.6213092258       19.6970896804       13.3861255523
  H        22.3024725312       16.2304951832       11.2087112537
  H        24.4936888897       16.1657859913       10.0060843312
  H        23.7019220480       17.6587681240       14.7929612477
  H        28.9448016988       21.7348353806        9.7035323552
  H        29.1834805969       21.7192790355        6.4629304570
  H        32.1185430995       18.5709770844       10.9663689090
  H        27.3429812922       19.0688924298        8.0345741947
  H        14.8673751530       19.6913442554       12.0853691101
  H        17.0420053433       19.7613241885       13.3088886110
  H        18.3175940315       16.2183056448       11.2313931461
  H        16.1397861516       16.1651636542       10.0058890821
  H        16.9206771499       17.7489216430       14.7770605360
  H        46.0944616885       15.4505637825       12.0796012383
  H        43.9717260575       15.3910790876       13.3868125278
  H        42.5459338481       18.8136710235       11.2051787416
  H        44.6688936982       18.8474377087        9.8869110293
  H        44.0088185203       17.3139798464       14.8523873334
  H        20.3242950932       17.9864965292       11.3882060206
  H        46.0453556593       15.3766557382        4.0345974446
  H        43.9129951290       15.2839989612        2.7498398529
  H        42.4789047489       18.7246528467        4.8957177869
  H        44.6201281910       18.8062414951        6.1794368628
  H        43.9851014559       17.2687212682        1.3000144227
  H        46.1982580346       26.6824493405        4.6231886876
  H        52.7409058335       21.0625130606        8.1946251057
  H        14.8639735399       19.6712515280        3.9004709253
  H        17.0531327846       19.7357067590        2.6946784120
  H        18.2909786762       16.1744579165        4.7637989373
  H        16.1049571195       16.1355451309        5.9815013615
  H        16.9169562554       17.7308565794        1.2258675401
  H        52.3216930791       21.6732625504        6.2948020978
  H        52.0125766562       21.7017774118        9.4954212153
  H        49.0653349029       18.6068688244        5.2046817274
  H        13.2469061576       19.0168059337        7.9744154308
  H        29.9155430715       12.4847646409       12.2126963427
  H        28.8487986335       10.5756252172       13.4076817945
  H        25.2280065703       11.1984036486       11.1704931022
  H        26.3145263227       13.0953138102        9.9631116399
  H        27.1399863762       11.7079922084       14.7800306242
  H        30.9890689968       22.8439191168       11.9603992778
  H        32.0196869180       24.6839024192       13.2792210666
  H        35.7379735911       24.0811801233       11.2036523212
  H        34.7010568594       22.2179097698        9.8999330048
  H        33.6937749188       23.5635607531       14.7602954503
  H        25.6642057993        8.6109582633       11.4123706668
  H        30.9863663467       22.6175001376        3.9164425137
  H        31.9911812693       24.4946333442        2.6218815617
  H        35.6140045845       24.1234733224        4.9136277527
  H        34.5898448535       22.2570492281        6.2168976814
  H        33.6690558909       23.5368064686        1.2074357200
  H        40.5598096106       16.9709230260        4.6622083493
  H        32.5262134996       14.1430957951        8.2866624710
  H        29.9623330318       12.6365734912        3.7302585725
  H        28.9327571273       10.6905031015        2.5639893393
  H        25.3592773954       11.1754736061        4.9096225590
  H        26.4123759506       13.1008013079        6.0932596104
  H        27.1834290393       11.7174026404        1.2237955088
  H        33.2707336471       14.1307613677        6.3962611988
  H        33.4042476893       14.4017468862        9.6337083864
  H        32.1231201457       18.4845176894        5.0778694751
  H        30.2086793773       14.1864035051        8.0783593113
  H        16.1188440975        2.9631050453       12.1295472075
  H        14.9535371230        4.8200092680       13.3224234312
  H        17.3661802633        7.6858673145       11.2101161493
  H        18.5150502604        5.8183707757       10.0101670339
  H        16.7536326463        5.7394108510       14.7715604247
  H        44.8283371343       32.1403142146       11.9768205760
  H        45.9376534034       30.3413525971       13.3061750949
  H        43.6822823851       27.3782715921       11.1524474568
  H        42.5994977005       29.1901942666        9.8099631834
  H        44.2303950244       29.4368429468       14.7685923327
  H        14.8505980096        8.5455675388       11.3632981027
  H        44.9001588759       32.2340712549        3.9321437334
  H        46.0248730363       30.4129873565        2.6524794981
  H        43.7623628619       27.4841841972        4.8444493400
  H        42.6447188860       29.3178757953        6.1235948099
  H        44.2683763427       29.4706418380        1.2178719845
  H        35.0855245582       26.5857358002        4.6523674759
  H        36.6052139406       35.1338252351        8.1810596119
  H        16.1441027757        3.0127473690        3.9040211559
  H        14.9744861694        4.8559523173        2.6881442706
  H        17.3954111873        7.7471677141        4.7557880644
  H        18.5426084319        5.8932942868        5.9834898276
  H        16.7646816584        5.7553571287        1.2193273324
  H        36.2794680130       34.4814766085        6.2734451956
  H        36.3827002765       34.2083452460        9.4998673981
  H        40.5789315042       33.2021253450        5.1540339733
  H        17.4720409531        1.9469876267        7.9740785778
  H        29.2322407292       19.2030115859       12.9229997673
  H        28.6498770633       18.8668566443        3.7424801852
  H        31.1103623998       15.4504532813       12.4878419204
  H        28.0387850233       18.0759743967       14.3629672884
  H        29.3573666019       15.2937258158       14.8887634799
  H        32.5246095315       17.6853821465        1.3032102861
  H        18.8535007946        0.8689923037       12.3353127289
  H        40.5274558457       35.2292273973        3.9520268881
  H        42.3241985204       34.4186523092        3.5913042891
  H        22.0883036907        0.6920275188       12.3509944338
  H        11.5969314209       18.7127867201       12.3824673800
  H        52.2647592712       18.4312847969        3.6780141185
  H        49.2548998144       16.4773568244        3.5846212194
  H        10.1504163669       15.7982458020       12.2923460021
  H        50.8497551858       17.6926230616        3.9541396656
  H        10.0458815505       17.3945802730       12.0519528895
  H        20.2148103113        0.0023773267       12.0420427207
  H        39.1833459198       36.1244285878        3.6865020264
 Ni        30.5624535392       18.0886116994        2.5807223071
 Ni        30.9507562652       16.4398387680        0.1660918709
 Ni        29.6291415655       18.2919898739        0.1712581084
 Ni        30.1447221468       17.2050036707       13.5719267573
  O        10.6497373929       14.3652028928        5.4857470434
  O        12.6130392983       14.6574215865        6.5838970038
  O        49.1474218834       16.8460361623        7.9895675748
  O        50.3498584544       20.9366078246        5.6484223597
  O        48.3482976358       20.5932469952        6.6660000526
  O        11.0509273992       17.0540238845        6.5005740187
  O        50.3208758869       20.8816716994       10.4067957701
  O        48.3466716298       20.5866559453        9.3269615296
  O        49.5432936935       18.2484400352       10.0682545613
  O        12.3587661423       18.6246144795        7.9998767319
  O        48.6930846407       14.1487183345        6.7511580033
  O         8.2096791049       14.2104419550        9.3226350122
  O        10.7352990017       14.5067721062       10.6644290204
  O        12.5717563923       14.5827733206        9.3285752577
  O        22.8468348731        2.0475367500        5.4852320036
  O        21.6096859968        3.5958868442        6.5859924503
  O        42.0580474112       34.1375668630        7.9785943138
  O        37.9813048667       33.1354593805        5.5722476798
  O        39.2189183470       31.5763170261        6.6670366660
  O        20.3087334032        1.0401962111        6.5020188400
  O        38.0243336111       33.1848258987       10.4157539822
  O        39.2189221689       31.5834627099        9.3270049711
  O        40.6522707641       33.7694015893       10.0601050450
  O        18.2567268526        1.3758082757        7.9967209967
  O        44.6221561462       35.1006114362        6.7586104805
  O        24.2052232564        0.0001907349        9.3207896122
  O        22.7534653082        2.0599811159       10.5853325168
  O        21.6253884679        3.5975286578        9.3444164528
  O        27.4517942784       18.6786797065        5.4192091649
  O        26.6944876099       16.9240241694        6.6592108002
  O        30.6390821316       19.3455048910        7.9983553081
  O        33.4266612062       16.2856995565        5.5013064334
  O        34.2155476949       18.0893091433        6.6618770575
  O        29.5676968561       17.0648045067        6.5761700771
  O        33.5399961438       16.3341160168       10.4908524295
  O        34.2611256717       18.1851362452        9.3914067528
  O        31.6324415122       18.3172471005       10.1645231865
  O        30.3236913151       15.1512166440        8.0884939442
  O        28.5511355753       21.0337066632        6.7489578542
  O        28.5110525776       20.9561902742        9.3161667367
  O        27.5154132574       18.6256314026       10.6652542866
  O        26.6951568384       16.9227586764        9.4045361088
  O        13.1485148474       18.6937160676       10.5863908011
  O        13.9192148068       16.9161433660        9.4046356488
  O        50.5951247273       19.3500880760        8.0208139547
  O        47.6819338637       16.3275187056       10.4175688636
  O        46.9505635661       18.1757478385        9.3252306220
  O        11.0687027385       17.0159430141        9.4896749438
  O        47.6742739119       16.3359416343        5.6523577108
  O        46.9226077230       18.2351796635        6.6611176546
  O        49.5681572126       18.3177635108        5.9821984112
  O        10.3182998172       15.1003591051        7.9970960630
  O        52.6706726609       21.0280126739        9.2418407534
  O        12.1467616272       20.8912802003        6.6732211550
  O        13.1049985469       18.6141639484        5.3260637552
  O        13.9552333082       16.9861581628        6.6652574090
  O        29.9795387211       14.4293185979       10.6584985655
  O        28.0846594618       14.6472271415        9.4194105039
  O        32.0775344310       16.8572398702        8.0850598786
  O        30.9684012716       20.9521799869       10.4054607516
  O        32.9456863942       20.5956577003        9.3320780573
  O        29.5536643113       17.0867929246        9.5654444536
  O        30.9148431711       20.8767787495        5.6564043482
  O        32.9150770531       20.5103783880        6.6614865120
  O        31.5764073826       18.1781719033        5.8218902986
  O        28.2326765800       18.6806338121        8.0029039787
  O        32.4919781309       14.2170595555        9.3445653120
  O        32.4051149120       14.2116131667        6.8287854660
  O        30.0013193794       14.5932230961        5.3316844208
  O        28.1589118888       14.6499358511        6.6576137239
  O        17.8893394524        1.9665945147       10.6626949245
  O        18.9565218284        3.5270711884        9.4077361555
  O        39.1686238876       34.1387116243        7.9971455249
  O        43.2801944343       33.0590706980       10.3316599879
  O        42.0345923733       31.5064822955        9.2415844261
  O        20.3180218280        1.0372623385        9.4796223546
  O        43.2759805257       33.1826688766        5.5748911607
  O        42.0052743318       31.5841277346        6.5830183598
  O        40.5792454038       33.7754990974        5.9356753004
  O        22.3677721699        1.3854600460        7.9975414868
  O        36.6728958189       35.0996289347        9.2335166380
  O        16.4457024065        0.0640568832        6.6681184382
  O        17.9363999082        2.0432951559        5.3265439975
  O        18.9196019160        3.5931094946        6.6658940339
  O        29.5851761056       18.9698313320        3.9985187706
  O        29.6953883561       19.4942734416       12.0700662760
  O        31.1757364420       16.3380586506       12.0825319530
  O        31.8523380973       17.0756199932        1.6655604817
  O        30.2597868398       15.5954344456       14.6723974864
  O        28.9321526890       18.4648493719       14.3965093926
  O        39.4566898916       35.2438505837        4.0019811529
  O        19.1416234877        0.0046443910       11.9905040464
  O        41.9698522959       35.1729429903        4.0873536396
  O        21.6914008566       -0.0692426883       11.8955284759
  O        51.3647103044       18.6144106529        4.0053945284
  O        10.7511611314       18.7472595528       11.9049290221
  O        50.0794831161       16.4127927634        4.0916679025
  O         9.5244130569       16.4831226787       11.9911907833
 Zr         9.2954669850       16.0531449033        6.1819906165
 Zr        49.8347586420       16.0070446357        9.7466974303
 Zr        22.0731317223        0.0304777780        6.1886476126
 Zr        42.4605571745       35.1532818908        9.8004317984
 Zr        29.5581508267       19.0740582246        6.1535049843
 Zr        29.5501279613       19.1898804175        9.7657913680
 Zr        11.0369071092       19.0522409859        9.8276850041
 Zr        11.0422497020       19.1552126102        6.2517584085
 Zr        31.3075166321       16.0930281335        9.9626325229
 Zr        31.3956194818       16.0108466552        6.3726796676
 Zr        18.6010879974       -0.0022215392        9.7634392372
 Zr        18.5063189764       -0.0087872646        6.2137744980
 Zr        12.3001319207       16.3233742690        7.9909158105
 Zr        48.6138673811       18.8324437347        8.0096038175
 Zr        20.3167214467        2.4740637279        7.9897219339
 Zr        40.6426401366       32.6860851638        7.9782268435
 Zr        28.3304086586       16.3499048743        8.0527765030
 Zr        32.6131143651       18.8262776481        8.0448978360
  H        29.2522603284       17.9135652977        1.6113565829
  H        30.3057001299       20.2251475125       12.2754024359
