     573
 i =      273, E =     -4762.7782379813
  C        11.8586178669       14.0536671349        5.7415423890
  C        12.4561087649       12.8906351276        5.0233391503
  C        11.7044059054       12.1717948915        4.0815968811
  C        12.2807178964       11.1095590550        3.3892282253
  C        13.6212362750       10.7395684977        3.6170545671
  C        14.3543649118       11.4430081729        4.5906517836
  C        13.7815666741       12.5080494739        5.2821665191
  C        14.2607255554        9.6488758694        2.8436167973
  C        14.2560272498        9.6567721442        1.4218983403
  C        13.7428610166       10.7588744620        0.6679599037
  C        49.1267035288       21.2331841673        5.8795935659
  C        48.5499656649       22.4011587969        5.1525862485
  C        49.3000215440       23.0685334663        4.1716380984
  C        48.7330827356       24.1076436086        3.4384090704
  C        47.4025360578       24.5092726155        3.6670198539
  C        46.6715478851       23.8603386136        4.6804758787
  C        47.2339908700       22.8154338735        5.4098419415
  C        46.7723264489       25.5869806863        2.8697298350
  C        46.7612924048       25.5573511507        1.4479615767
  C        47.2612628445       24.4422715077        0.7044614140
  C        14.8599197704        8.5704038374        0.7086182509
  C        14.8916090314        8.5969534108        3.5202393047
  C        49.1129924732       21.2032925659       10.1451975722
  C        48.5275809526       22.3646293449       10.8724217945
  C        49.2668673042       23.0254453600       11.8652355666
  C        48.6905766282       24.0600366586       12.5966814489
  C        47.3601203094       24.4567452264       12.3585764370
  C        46.6396443053       23.8117343440       11.3351616482
  C        47.2131475112       22.7757719963       10.6033945122
  C        46.7217181423       25.5317617155       13.1496015368
  C        46.7335210509       25.5281728283       14.5713125998
  C        47.2489528903       24.4289497753       15.3276920837
  C        40.6077391966       17.0778613280       15.2610364430
  C        40.6065911146       17.0932485746       12.4511064488
  C        11.8829140498       14.0865991374       10.2852960947
  C        12.4721096840       12.9105883343       10.9893953781
  C        11.7147001170       12.1778587682       11.9159768157
  C        12.2811476860       11.0953383049       12.5844201765
  C        13.6197671915       10.7210748864       12.3522486310
  C        14.3575447444       11.4360701762       11.3908538896
  C        13.7922619757       12.5172992326       10.7181149729
  C        14.2532984580        9.6243238180       13.1227409528
  C        14.2521038537        9.6443574178       14.5446000923
  C        13.7422913306       10.7533215616       15.2916981730
  C        22.5068460395        3.2470917276        5.7418839977
  C        23.2059288071        4.3522932674        5.0208606287
  C        24.2001432398        4.0724737097        4.0709665647
  C        24.8191642945        5.1100211244        3.3766156737
  C        24.4617025816        6.4534620248        3.6095785673
  C        23.4902201898        6.7247028175        4.5912346011
  C        22.8670689453        5.6890437218        5.2843516730
  C        25.0722177758        7.5617068674        2.8351878437
  C        25.0617828832        7.5571143130        1.4127315187
  C        24.3727423663        6.5554411078        0.6585004453
  C        38.2972229525       31.9270979692        5.8499105452
  C        37.5530179864       30.8401861632        5.1457800608
  C        36.5923915094       31.1518395005        4.1705740881
  C        35.9573358826       30.1381539843        3.4574280158
  C        36.2649902499       28.7838632792        3.6954007956
  C        37.1953760512       28.4797259360        4.7078138616
  C        37.8352082993       29.4926815451        5.4200016784
  C        35.6483381697       27.6989281050        2.8943066837
  C        35.6968504038       27.7103015072        1.4716434052
  C        36.4161774633       28.7066016296        0.7394913312
  C        25.6881184633        8.6308602322        0.6989175892
  C        25.6618121119        8.6383922073        3.5108619432
  C        38.3298650725       31.9614106569       10.1582554272
  C        37.6114233504       30.8881913384       10.9036983996
  C        36.6796392293       31.1967557796       11.9067869965
  C        36.0695709674       30.1786661048       12.6371121138
  C        36.3762465811       28.8256101742       12.3883750407
  C        37.2878819185       28.5270900687       11.3568901329
  C        37.8999166316       29.5416722608       10.6277610127
  C        35.7628110037       27.7269059254       13.1692366089
  C        35.7555787874       27.7245247558       14.5921128199
  C        36.4418208016       28.7149940308       15.3623017713
  C        46.1354635180       26.6207893945       15.2814464720
  C        46.0877122613       26.5800947289       12.4735482052
  C        22.4674890360        3.2559547742       10.2487600201
  C        23.1765868489        4.3672143489       10.9514891109
  C        24.1890359552        4.0859258025       11.8824292225
  C        24.8260680048        5.1205635296       12.5630922558
  C        24.4694359295        6.4648925958       12.3359861604
  C        23.4834262068        6.7393143080       11.3698768856
  C        22.8427854228        5.7051825976       10.6884464375
  C        25.0945039697        7.5654900909       13.1108173055
  C        25.0726495260        7.5584036022       14.5334342624
  C        24.3754814076        6.5576532353       15.2816609122
  C        26.6497786273       17.9178361753        5.6947935853
  C        25.3482651374       18.0120070570        4.9748813797
  C        25.1070280688       19.0001373217        4.0075888999
  C        23.8786953345       19.0506476933        3.3492201021
  C        22.8606710666       18.1158861894        3.6317091054
  C        23.1008076304       17.1543623756        4.6314827372
  C        24.3257723914       17.0997452304        5.2896014645
  C        21.5822587221       18.1005289809        2.8783888444
  C        21.5792874809       18.0560869077        1.4565744398
  C        22.7838385516       17.9209805251        0.6962373393
  C        34.3610127762       17.3187948059        5.7229992457
  C        35.6788373778       17.2201534506        5.0349529968
  C        35.9088891483       16.2155050876        4.0809608003
  C        37.1138347507       16.1665274854        3.3869584503
  C        38.1220455278       17.1232324191        3.6227545804
  C        37.9004809824       18.0975232922        4.6141850646
  C        36.6944340265       18.1486999998        5.3095955461
  C        39.3804344500       17.1201899203        2.8435367208
  C        39.3663351419       17.1171177813        1.4209772664
  C        38.1549449500       17.2346196330        0.6698441806
  C        20.3305690257       18.0518505461        0.7525523025
  C        20.3590512491       18.0916883233        3.5655395072
  C        34.4563323360       17.2011492840       10.0650466751
  C        35.7392986663       17.1236083456       10.8203422033
  C        35.9301441478       16.1515262559       11.8146975187
  C        37.1078148394       16.1292088157       12.5588312319
  C        38.1277913000       17.0737324182       12.3273167495
  C        37.9390091003       18.0238195651       11.3051929082
  C        36.7591825129       18.0548060875       10.5674002347
  C        39.3777700692       17.0837009621       13.1218615399
  C        39.3651320997       17.0979904966       14.5442874864
  C        38.1537447867       17.2233838811       15.2927240795
  C        35.1141490801       26.6488583673       15.2913691295
  C        35.1804670273       26.6541402928       12.4816618633
  C        26.5717205016       17.8266377751       10.3174050389
  C        25.2553796339       17.8826530627       11.0186337218
  C        24.9886574802       18.9086617651       11.9380341798
  C        23.7693149793       18.9490497329       12.6080503661
  C        22.7880466436       17.9625659141       12.3848923830
  C        23.0493063972       16.9604072941       11.4326898554
  C        24.2687206060       16.9189215076       10.7588818363
  C        21.5247308567       17.9592766004       13.1592503580
  C        21.5494965287       17.9819199590       14.5804950425
  C        22.7694563744       17.8849787660       15.3210481921
  C        14.0453898944       17.8311976069       10.2862999692
  C        15.3496478514       17.8961118991       11.0087427228
  C        15.6054178048       18.9137780852       11.9408312164
  C        16.8146009684       18.9459310103       12.6317703431
  C        17.8004545129       17.9628793654       12.4126816236
  C        17.5491880455       16.9683183295       11.4488378010
  C        16.3395875747       16.9322538456       10.7585043521
  C        19.0694915700       17.9613696789       13.1795856771
  C        19.0689589353       17.9861155182       14.6018276313
  C        17.8636724251       17.8940614360       15.3667253336
  C        46.7996197062       17.2104531014       10.1474240253
  C        45.4967787431       17.1291020081       10.8674828618
  C        45.2851259062       16.1434585158       11.8439269447
  C        44.0949229084       16.1132724775       12.5652344625
  C        43.0859582136       17.0682707662       12.3318902798
  C        43.2917390710       18.0281448949       11.3225279484
  C        44.4830540096       18.0625745620       10.6022827978
  C        41.8345585127       17.0792773136       13.1225685800
  C        41.8499522234       17.0868205533       14.5453704288
  C        43.0629192671       17.1898081881       15.2956618007
  C        20.3160064017       18.0170273667       15.3078046513
  C        20.2920056150       17.9305352443       12.4952575517
  C        46.7833465272       17.2362744455        5.8772623124
  C        45.4872725754       17.1394502140        5.1414535152
  C        45.2783136268       16.1512738966        4.1660877912
  C        44.0966114275       16.1265425339        3.4277015522
  C        43.0869702649       17.0857580081        3.6449025595
  C        43.2890723059       18.0469528765        4.6546530666
  C        44.4724742490       18.0787476492        5.3875533932
  C        41.8371368798       17.0991870098        2.8480755316
  C        41.8512808572       17.0951513630        1.4244717508
  C        43.0638327530       17.1915432936        0.6732527190
  C        46.1533590094       26.6372790811        0.7262092051
  C        46.1623414020       26.6560822465        3.5358618964
  C        14.0494264150       17.8397226743        5.7101086915
  C        15.3722144455       17.9391860308        5.0216928159
  C        15.6250255173       18.9659533176        4.0986925336
  C        16.8513805207       19.0335088862        3.4406076189
  C        17.8565200643       18.0743527770        3.6783349242
  C        17.6104766298       17.0764475437        4.6398200390
  C        16.3853555135       17.0082321619        5.3018185825
  C        19.1233858241       18.0795028270        2.9038410545
  C        19.0968480119       18.0463864864        1.4814377069
  C        17.8773281737       17.9198976105        0.7430876781
  C        28.8195833445       14.0827848194       10.2726033242
  C        28.2104838505       12.9237175539       10.9870360510
  C        28.9260639435       12.2173991584       11.9656737888
  C        28.3290695242       11.1535066748       12.6386422793
  C        27.0025209045       10.7676946268       12.3559739156
  C        26.3082701944       11.4576262830       11.3449966963
  C        26.9011499222       12.5238100944       10.6734823074
  C        26.3363500764        9.6855397739       13.1189221845
  C        26.3100695393        9.7098322447       14.5404756541
  C        26.7998127277       10.8240868704       15.2921156380
  C        32.1824056225       21.2297347686       10.1381338019
  C        32.7795896365       22.3928675548       10.8597691146
  C        32.0316858994       23.0699330423       11.8358581602
  C        32.5996943102       24.1129733923       12.5609582541
  C        33.9328060469       24.5078689117       12.3342552107
  C        34.6637450711       23.8481092554       11.3278371642
  C        34.0976681293       22.8002488981       10.6033537333
  C        34.5575809591       25.5855967803       13.1360558401
  C        34.5336010800       25.5620887662       14.5582604495
  C        34.0210136288       24.4474702558       15.2927627978
  C        25.6980855873        8.6281919677       15.2536232990
  C        25.7110814128        8.6301741643       12.4403261040
  C        32.0056988388       21.1796397896        5.7606890447
  C        32.5681020621       22.3564308185        5.0456946624
  C        31.8599155900       22.9960025102        4.0157099336
  C        32.4407057324       24.0533787848        3.3181617034
  C        33.7435852565       24.4982068925        3.6244300569
  C        34.4262801442       23.8758805410        4.6880616433
  C        33.8516794519       22.8182783775        5.3847558944
  C        34.4043453557       25.5784837799        2.8565008982
  C        34.4542499697       25.5586595908        1.4344299207
  C        33.9816787299       24.4466734351        0.6689261831
  C        40.6087665284       17.0848063569        0.7065784142
  C        40.6072230857       17.1300555232        3.5174120896
  C        28.6867025931       14.1290788433        5.7008994444
  C        28.0850354514       12.9640182555        4.9951001284
  C        28.8115839853       12.2767144154        4.0103235920
  C        28.2370967691       11.2035489912        3.3362195514
  C        26.9170134223       10.7946227207        3.6131175907
  C        26.2097087139       11.4667620525        4.6285010517
  C        26.7844342069       12.5373563398        5.3103995612
  C        26.2782960219        9.7034206854        2.8400872795
  C        26.2805020590        9.7206073045        1.4175153264
  C        26.7830723291       10.8310955476        0.6679188503
  C        18.1354889140        3.1809241985       10.3170013781
  C        17.4060651608        4.2781386653       11.0156494151
  C        16.3903224185        3.9996809725       11.9431148136
  C        15.7424491910        5.0395878596       12.6066042498
  C        16.0942892189        6.3833505313       12.3670380723
  C        17.0836916155        6.6529730123       11.4033206087
  C        17.7329317415        5.6156991728       10.7382822643
  C        15.4698104359        7.4909894415       13.1300905152
  C        15.4851147024        7.4903595880       14.5518117862
  C        16.1867162905        6.4967816413       15.3049813083
  C        42.9456991962       31.8595166050       10.0727655408
  C        43.6460105060       30.7718037174       10.8167602449
  C        44.5915495441       31.0931263939       11.8028183943
  C        45.1972324714       30.0875887352       12.5505143258
  C        44.8708852695       28.7345080881       12.3356254302
  C        43.9450266524       28.4201774232       11.3224328703
  C        43.3362402271       29.4253125635       10.5743488851
  C        45.4884738781       27.6552059033       13.1388250231
  C        45.4927760967       27.6809294122       14.5605221897
  C        44.8056669165       28.6889489040       15.3071652268
  C        14.8561195415        8.5628513360       15.2641681141
  C        14.8745167799        8.5627474767       12.4514890062
  C        42.9464484202       31.9616645311        5.8089204624
  C        43.6917136626       30.8855176320        5.0955016685
  C        44.6562778900       31.1914333785        4.1231718072
  C        45.2778348798       30.1718394765        3.4054840818
  C        44.9539993168       28.8215160426        3.6430412365
  C        44.0205653325       28.5238651688        4.6538763623
  C        43.3922397938       29.5406245106        5.3660167489
  C        45.5631144896       27.7241266704        2.8578170841
  C        45.5333124889       27.7173913218        1.4365138450
  C        44.8270377399       28.7076532644        0.6835567126
  C        35.0790679704       26.6449002783        0.7367558754
  C        35.0164831225       26.6337526918        3.5470386212
  C        18.1485433881        3.2468270634        5.7065059611
  C        17.4299457950        4.3436816806        4.9972464275
  C        16.4146993055        4.0524398766        4.0737063399
  C        15.7663381140        5.0830819396        3.3983757601
  C        16.1210514943        6.4283217657        3.6210335824
  C        17.1124839457        6.7116838942        4.5782486468
  C        17.7602024005        5.6827543887        5.2579564620
  C        15.4904123048        7.5240014883        2.8486425333
  C        15.4962660790        7.5073635196        1.4274991916
  C        16.1929913910        6.5056427970        0.6807936401
  H        10.6723267505       12.4660566965        3.9044853075
  H        11.6944033803       10.5511703167        2.6626349075
  H        15.3913539431       11.1683062890        4.7724815489
  H        14.3510900554       13.0712700216        6.0175659898
  H        13.3759054187       11.6310343731        1.2012558877
  H        50.3227315475       22.7484904556        3.9869112670
  H        49.3195789696       24.6229385568        2.6808585033
  H        45.6420482851       24.1611042646        4.8636207466
  H        46.6629390767       22.2900903738        6.1718413657
  H        47.6297628608       23.5758699684        1.2461410278
  H        14.8719973259        8.5882123415        4.6085503380
  H        50.2869436759       22.7026405342       12.0600601155
  H        49.2690312400       24.5755508579       13.3600996869
  H        45.6101891699       24.1088819130       11.1462238064
  H        46.6522010590       22.2534768284        9.8320079525
  H        47.6077194631       23.5518174308       14.7967996807
  H        40.6074476392       17.0581053577       11.3633105867
  H        48.6869025465       14.0953824336        7.8001462903
  H        10.6813921237       12.4673316511       12.0936860884
  H        11.6893797523       10.5253128676       13.2974346536
  H        15.3927926221       11.1577422574       11.2045384833
  H        14.3645021842       13.0861956432        9.9891272574
  H        13.3755189898       11.6219707019       14.7530789403
  H        47.9302146493       14.2198971354        9.7106725398
  H        47.7798115938       14.3740918518        6.4951300668
  H        49.0813033242       18.5509130360       10.8660867490
  H        10.4159774858       14.1344197989        7.9986153081
  H        24.4689425629        3.0343618264        3.8881944499
  H        25.5924799972        4.8882470221        2.6442587301
  H        23.2022612719        7.7571011078        4.7787120783
  H        22.0981709726        5.8935500815        6.0255405979
  H        23.8098015095        5.7951005742        1.1921083026
  H        36.3677236514       32.1972685571        3.9726195203
  H        35.2141075021       30.3876644461        2.7032540806
  H        37.4430011782       27.4380327577        4.9015613656
  H        38.5783792802       29.2612551978        6.1795922240
  H        36.9778466186       29.4560497326        1.2894119049
  H        25.6882987610        8.6201428070        4.5989657472
  H        36.4533422138       32.2408588015       12.1109252453
  H        35.3404562013       30.4242851839       13.4060618194
  H        37.5381446327       27.4870469214       11.1583162852
  H        38.6251066858       29.3153458980        9.8499001571
  H        37.0239369869       29.4707409548       14.8427098556
  H        46.1090381090       26.5874526305       11.3855099714
  H        44.6681191872       35.1161987981        7.8142265325
  H        24.4653747048        3.0482825028       12.0555653400
  H        25.6127573357        4.8965918739       13.2803992710
  H        23.1977959961        7.7729346819       11.1853975691
  H        22.0642111075        5.9132526916        9.9582346562
  H        23.8139695338        5.7994518258       14.7437477175
  H        44.9531911513       34.3899098178        9.6948957889
  H        44.9016301089       34.2069425011        6.4905904477
  H        40.6659059820       33.2088043480       10.8528260969
  H        23.1501762547        1.9584990979        8.0008176303
  H        25.8913592548       19.7192182679        3.7813494734
  H        23.6961953661       19.8216470769        2.6037435661
  H        22.3277167566       16.4232971651        4.8588628675
  H        24.5201907457       16.3428663147        6.0452743873
  H        23.7269835960       17.8128147026        1.2234456156
  H        35.1275810981       15.4806401250        3.8990674913
  H        37.2916646009       15.3825728777        2.6539496195
  H        38.6717349422       18.8409692112        4.8048425717
  H        36.5082289772       18.9181470910        6.0551995066
  H        37.2194400038       17.3709327763        1.2043536390
  H        20.3689171517       18.1402634642        4.6530824239
  H        35.1378391248       15.4301795824       12.0012967113
  H        37.2525495300       15.3704132774       13.3247228607
  H        38.7163040360       18.7625658960       11.1213033664
  H        36.5975637625       18.8072854880        9.7994274831
  H        37.2178352243       17.3476245368       14.7552290037
  H        35.1646188914       26.6788014601       11.3936790890
  H        28.4870474707       21.1364478581        8.0037605344
  H        25.7502404327       19.6655720501       12.1110905519
  H        23.5631532176       19.7487769264       13.3161506209
  H        22.3005257353       16.1911661153       11.2550424461
  H        24.4858372031       16.1330074581       10.0394084768
  H        23.7006160302       17.7498848166       14.7789817722
  H        29.0166259567       21.7036376664        9.7788489165
  H        29.0372645347       21.8583187666        6.6077012967
  H        32.1194850726       18.4537825839       10.8541832075
  H        27.3469908389       19.0995016038        8.0965180883
  H        14.8461829186       19.6745676167       12.1074886759
  H        17.0112206578       19.7413102879       13.3474525769
  H        18.3008376325       16.2016479569       11.2722614668
  H        16.1327483603       16.1524681861       10.0293551712
  H        16.9207466344       17.7670472948       14.8427928420
  H        46.0720290896       15.4172632725       12.0336029746
  H        43.9332438262       15.3443735988       13.3175115591
  H        42.5201101083       18.7723848837       11.1367699153
  H        44.6597854995       18.8205613377        9.8427757269
  H        44.0010129718       17.3007785435       14.7595151255
  H        20.2832981182       17.9373484992       11.4067692471
  H        46.0574349493       15.4131006847        3.9895227377
  H        43.9418708541       15.3551684071        2.6763970777
  H        42.5197977206       18.7958251304        4.8315582344
  H        44.6430216732       18.8406732216        6.1443694266
  H        44.0025879660       17.3035461057        1.2080148857
  H        46.1991988041       26.6826331754        4.6233071158
  H        52.7409205026       21.0626670830        8.1945834380
  H        14.8493417772       19.7056163541        3.9132074730
  H        17.0426438444       19.8335062398        2.7285201073
  H        18.3764806514       16.3281619607        4.8329973001
  H        16.1837599056       16.2238491040        6.0275944116
  H        16.9447923526       17.8123891240        1.2888920985
  H        52.3219254033       21.6732263802        6.2946851464
  H        52.0130412782       21.7019622039        9.4956419748
  H        49.0677485308       18.6076046798        5.2033372915
  H        13.2472337290       19.0174881957        7.9772267032
  H        29.9481856363       12.5167967590       12.1867332953
  H        28.8885236642       10.6064178441       13.3943291718
  H        25.2828199859       11.1728255675       11.1186390345
  H        26.3592301489       13.0758538597        9.9095657284
  H        27.1646022683       11.6968431904       14.7587613501
  H        31.0088998103       22.7525081125       12.0235675873
  H        32.0127320831       24.6354300978       13.3131408590
  H        35.6959432682       24.1409114123       11.1466632923
  H        34.6699976061       22.2671517049        9.8477130483
  H        33.6819444829       23.5720833867       14.7463081270
  H        25.7501841291        8.6105335950       11.3526044279
  H        30.8633663726       22.6421935716        3.7604784398
  H        31.8849937627       24.5471905486        2.5241286462
  H        35.4329746723       24.2064897478        4.9349940217
  H        34.3894073659       22.3175824129        6.1861011706
  H        33.6127314641       23.5690097179        1.1914034363
  H        40.6047125287       17.1069764101        4.6056315196
  H        32.5096933108       14.2160560825        7.9249371066
  H        29.8255680517       12.5966505330        3.7845723555
  H        28.8093364803       10.6694009843        2.5812088995
  H        25.1887235215       11.1637521458        4.8513969096
  H        26.2330024061       13.0720379885        6.0801571981
  H        27.1362103148       11.7102509180        1.1990468338
  H        33.2992409114       14.4293372976        6.1290702354
  H        33.4152852181       14.3353592625        9.2905060308
  H        31.9410650711       18.6521767840        4.8803810400
  H        30.2029675388       14.2070654560        7.9004142935
  H        16.1183167325        2.9631460278       12.1294362552
  H        14.9529863423        4.8200823187       13.3222164281
  H        17.3661158808        7.6858733649       11.2103211943
  H        18.5150154035        5.8184642148       10.0105138431
  H        16.7532832850        5.7394510189       14.7714762024
  H        44.8277854960       32.1402129163       11.9770373615
  H        45.9371069292       30.3413453026       13.3064494017
  H        43.6823648189       27.3781041718       11.1522881705
  H        42.5996412410       29.1899653328        9.8096693272
  H        44.2303050066       29.4367154493       14.7688648812
  H        14.8507390515        8.5459359125       11.3632668218
  H        44.8998452537       32.2341123987        3.9317397105
  H        46.0247027801       30.4130744395        2.6522101017
  H        43.7635613799       27.4841410166        4.8454130693
  H        42.6457082272       29.3178225791        6.1244306420
  H        44.2685214278       29.4705398400        1.2181357006
  H        34.9557579495       26.6516779673        4.6336884835
  H        36.6051450162       35.1339427529        8.1807445688
  H        16.1435765811        3.0128672141        3.9040060915
  H        14.9739821133        4.8562336550        2.6883234383
  H        17.3960385836        7.7471466199        4.7550999466
  H        18.5431011710        5.8932012495        5.9827016625
  H        16.7645082438        5.7554584461        1.2192231126
  H        36.2789345565       34.4820875056        6.2731319925
  H        36.3813889548       34.2089229365        9.4996830368
  H        40.5791431556       33.2021583529        5.1539240488
  H        17.4711385002        1.9470963522        7.9738777542
  H        29.2375052334       19.3244319137       12.5289555411
  H        30.5969953045       15.4141699007        3.5065831239
  H        31.4351390726       15.5623266482       12.3772703235
  H        28.2778347099       17.6916677123       14.4761812352
  H        29.8792535606       15.3979760106       14.4870859447
  H        31.7655645402       18.9751250860        1.5217256464
  H        33.6211501311       15.9912845763        1.5605822788
  H        28.2303454982       15.2220711305        1.3113841199
  H        32.4555607720       18.9097412068       15.2862519837
  H        18.8528977492        0.8689071962       12.3350408156
  H        40.5281086431       35.2289915033        3.9520918886
  H        42.3240236019       34.4188827908        3.5906969938
  H        22.0876970588        0.6920961145       12.3517480552
  H        11.5970044809       18.7125166518       12.3820150039
  H        52.2648395260       18.4307171286        3.6776298400
  H        49.2548756120       16.4771925557        3.5848747607
  H        10.1502218129       15.7984866368       12.2931680514
  H        50.8498382268       17.6923239399        3.9541779136
  H        10.0459293204       17.3949315862       12.0519421671
  H        20.2138949247        0.0021075446       12.0420788276
  H        39.1836847004       36.1243466504        3.6862833974
 Ni        30.0984305190       17.2786353661        2.0079271091
 Ni        31.6625567558       16.5230963755       -0.1682749388
 Ni        30.0167325274       18.4964885986        0.0001998882
 Ni        30.1960824498       17.3162963497       12.9977215168
  O        10.6498800926       14.3652512242        5.4858529665
  O        12.6132468532       14.6577483748        6.5838250645
  O        49.1478157379       16.8459147845        7.9896571926
  O        50.3501356870       20.9358216932        5.6479669750
  O        48.3485087113       20.5932439668        6.6658841014
  O        11.0512891263       17.0536655339        6.5006751862
  O        50.3208526363       20.8816847639       10.4067857095
  O        48.3466399699       20.5866067301        9.3269451437
  O        49.5438754788       18.2483366541       10.0679269153
  O        12.3593371183       18.6244254101        7.9993728553
  O        48.6930251214       14.1488588748        6.7512476612
  O         8.2099607969       14.2104836876        9.3224351488
  O        10.7352983751       14.5067735643       10.6642889947
  O        12.5718099413       14.5829289309        9.3283793405
  O        22.8454308618        2.0452053226        5.4854488746
  O        21.6075336125        3.5941781432        6.5868103604
  O        42.0579932215       34.1373595862        7.9788115548
  O        37.9814480868       33.1366963588        5.5719635164
  O        39.2162424507       31.5744962939        6.6644365994
  O        20.3086531867        1.0399807069        6.5016650564
  O        38.0245776262       33.1854025745       10.4152901311
  O        39.2189725234       31.5835572929        9.3265742045
  O        40.6521461022       33.7692980302       10.0600714626
  O        18.2558910472        1.3760189471        7.9966599828
  O        44.6221439648       35.1006588451        6.7588694291
  O        24.2053930445        0.0000331637        9.3207777861
  O        22.7534389908        2.0587283817       10.5833260223
  O        21.6239205189        3.5951734668        9.3400210354
  O        27.5847290397       18.7616663877        5.4066206783
  O        26.7361415046       17.0044971715        6.5820694047
  O        30.6503369047       19.4163640595        7.9986733563
  O        33.4570052130       16.4802175894        5.3954339308
  O        34.2210210124       18.2549228253        6.5839514301
  O        29.5207884118       17.1255763448        6.5010841917
  O        33.5959448602       16.2697116962       10.2339790276
  O        34.3017137391       18.2287595150        9.3105986973
  O        31.6856133455       18.2585210649       10.0045163630
  O        30.3116169733       15.1721006814        7.9103287137
  O        28.5106720306       21.1004788913        6.9143639261
  O        28.5157803152       20.9563995600        9.4078300161
  O        27.4606990591       18.6754912409       10.6552995200
  O        26.6946432414       16.9268947151        9.4060494774
  O        13.1466838152       18.6937209502       10.5863159094
  O        13.9191345971       16.9163219198        9.4048260244
  O        50.5956920221       19.3499882298        8.0198358541
  O        47.6828351595       16.3267494632       10.4166071814
  O        46.9514963792       18.1758366311        9.3236840705
  O        11.0700677634       17.0152457535        9.4892340700
  O        47.6732046938       16.3364318127        5.6509876535
  O        46.9232074996       18.2354735734        6.6610780064
  O        49.5682837104       18.3176163670        5.9819870291
  O        10.3186536334       15.1002731106        7.9970277900
  O        52.6706727151       21.0278791736        9.2417892562
  O        12.1467616689       20.8912218874        6.6732994628
  O        13.1066637408       18.6146756150        5.3257316027
  O        13.9609504955       16.9891254268        6.6618415029
  O        30.0138848819       14.4275659774       10.5614296170
  O        28.0817143427       14.6557430125        9.3963792063
  O        32.0388474421       16.9314968555        7.8410029109
  O        30.9672600105       20.9426300424       10.3995773713
  O        32.9471735003       20.5927717765        9.3244341930
  O        29.5657276374       17.0726465830        9.4843351653
  O        30.7911272102       20.8231579915        5.4937987306
  O        32.7794615846       20.5870914599        6.5829718193
  O        31.4692828166       18.3124529305        5.6572419314
  O        28.2270608050       18.6896016940        8.0693411478
  O        32.4934845560       14.2144621111        8.9996102208
  O        32.4016230017       14.3585666371        6.4938930067
  O        29.8518462143       14.5152229528        5.3263612338
  O        28.0043116317       14.6520791730        6.6509349487
  O        17.8892814428        1.9665749271       10.6627722729
  O        18.9562994521        3.5271060573        9.4078788012
  O        39.1685641585       34.1386084046        7.9969864503
  O        43.2801582870       33.0589057333       10.3316484621
  O        42.0343446013       31.5064451757        9.2415096116
  O        20.3176104659        1.0366503093        9.4795734855
  O        43.2760450226       33.1826365961        5.5749205127
  O        42.0052768196       31.5842070101        6.5829702978
  O        40.5790995682       33.7751443994        5.9358360773
  O        22.3674456040        1.3846954190        7.9975822144
  O        36.6728003103       35.0997221934        9.2333113382
  O        16.4456703517        0.0641174999        6.6681763058
  O        17.9363321874        2.0432145131        5.3263842467
  O        18.9191331861        3.5931032444        6.6657754392
  O        29.8666467671       18.8937741059       11.9169753231
  O        31.0448673049       16.2714050571        3.6557451379
  O        31.3490621571       16.3516061730       11.8050292623
  O        32.8288676634       16.5521300471        1.5094029789
  O        29.1093511527       14.8093914490        1.2500314852
  O        30.6792445865       15.8930957689       14.2410805554
  O        31.7296156646       18.3355598143       14.9890924318
  O        30.8023816817       19.0511930859        1.6571183728
  O        29.1039120464       18.1799784291       14.3309620898
  O        39.4568461745       35.2437710136        4.0019513545
  O        19.1408138416        0.0043224013       11.9905683476
  O        41.9695598641       35.1727713478        4.0872478627
  O        21.6913653931       -0.0691562390       11.8957474874
  O        51.3649431274       18.6142037562        4.0053368614
  O        10.7509777499       18.7470827843       11.9048975617
  O        50.0795557050       16.4128189904        4.0917505847
  O         9.5244103947       16.4831808070       11.9911928778
 Zr         9.2958830076       16.0528434993        6.1823704675
 Zr        49.8369392805       16.0069313568        9.7466263912
 Zr        22.0735788673        0.0303023060        6.1889965681
 Zr        42.4607154726       35.1537002388        9.8010007765
 Zr        29.5568366075       19.1649566847        6.3388935397
 Zr        29.5717434490       19.1520159287        9.8559709739
 Zr        11.0371656624       19.0519592878        9.8274628135
 Zr        11.0437848390       19.1546406401        6.2508065331
 Zr        31.3559666349       16.0675992724        9.6883533285
 Zr        31.2909575723       16.1079825101        6.0115949704
 Zr        18.6011934033       -0.0014284086        9.7632659549
 Zr        18.5065694322       -0.0080032643        6.2135629525
 Zr        12.3026725876       16.3237942082        7.9891607653
 Zr        48.6153466971       18.8326863764        8.0094476951
 Zr        20.3156589644        2.4738225721        7.9897085344
 Zr        40.6430169366       32.6867450608        7.9776258266
 Zr        28.3141332354       16.3567133958        8.0209576344
 Zr        32.6365380341       18.8494462181        7.9885385964
  H        28.8839704112       17.9662027047        0.9683240992
  H        29.6545290746       15.5011981705        0.7810412205
  H        32.2844426724       16.3839447979        2.3498358785
