     573
 i =      129, E =     -4762.7549859186
  C        11.8587942133       14.0535912449        5.7414591944
  C        12.4562428769       12.8906109283        5.0232676203
  C        11.7045773012       12.1717385930        4.0814952759
  C        12.2809387053       11.1095722003        3.3890699575
  C        13.6215032228       10.7396284457        3.6167856541
  C        14.3545870754       11.4430960055        4.5904182203
  C        13.7817574185       12.5080841187        5.2819970852
  C        14.2609840956        9.6488938630        2.8433562018
  C        14.2561323901        9.6566267432        1.4216269507
  C        13.7430481857       10.7587005138        0.6675955956
  C        49.1268050784       21.2331893565        5.8795880962
  C        48.5500876103       22.4012071572        5.1526275099
  C        49.3000473980       23.0683457284        4.1714422942
  C        48.7331513563       24.1074855404        3.4382124338
  C        47.4026961233       24.5093609696        3.6669656062
  C        46.6718562659       23.8607126586        4.6807250546
  C        47.2342557014       22.8157960754        5.4101027865
  C        46.7724266596       25.5870321977        2.8696598307
  C        46.7614258509       25.5574429480        1.4478867006
  C        47.2614098103       24.4424081692        0.7043363725
  C        14.8599810191        8.5701915084        0.7083854725
  C        14.8918679079        8.5969986664        3.5200344254
  C        49.1131173720       21.2033227830       10.1452298203
  C        48.5277482134       22.3647579020       10.8723359105
  C        49.2669259537       23.0253413989       11.8653902269
  C        48.6906786129       24.0599933712       12.5967924844
  C        47.3603676621       24.4570568906       12.3584060334
  C        46.6400357402       23.8122916477       11.3347213618
  C        47.2135058676       22.7762956864       10.6029757523
  C        46.7219093191       25.5320270893       13.1494733949
  C        46.7336461146       25.5283428350       14.5711940030
  C        47.2491312570       24.4291448104       15.3275729953
  C        40.6070330263       17.0739891065       15.2623592920
  C        40.6053114739       17.0908196441       12.4528324105
  C        11.8830103539       14.0864519294       10.2853169064
  C        12.4721964290       12.9104706922       10.9893604833
  C        11.7148568882       12.1776540148       11.9159542123
  C        12.2813273352       11.0950424511       12.5842197542
  C        13.6199128420       10.7206541805       12.3519321292
  C        14.3576241424       11.4357911203       11.3905752110
  C        13.7923352250       12.5171214868       10.7179799405
  C        14.2533849308        9.6238034938       13.1224056961
  C        14.2521525426        9.6439648892       14.5442777900
  C        13.7424931840       10.7530448245       15.2913255552
  C        22.5070874834        3.2473587298        5.7418283900
  C        23.2066146345        4.3522872452        5.0213518199
  C        24.2002032507        4.0722566686        4.0708382173
  C        24.8193460774        5.1097210542        3.3765483623
  C        24.4625935543        6.4532471204        3.6101391991
  C        23.4920362197        6.7246246427        4.5927024930
  C        22.8687500461        5.6891065563        5.2857971393
  C        25.0723877365        7.5616679863        2.8355830562
  C        25.0608527281        7.5575757348        1.4131420091
  C        24.3722446906        6.5556193189        0.6589240064
  C        38.2981713596       31.9259701900        5.8476867131
  C        37.5569704350       30.8390796581        5.1389791322
  C        36.5964487643       31.1517013822        4.1638460322
  C        35.9617906118       30.1391752047        3.4482816920
  C        36.2691613714       28.7842479700        3.6834887978
  C        37.2009480303       28.4791012749        4.6944732065
  C        37.8403816550       29.4909295737        5.4091039613
  C        35.6484462682       27.6999064704        2.8836221774
  C        35.6901334614       27.7117109731        1.4606550828
  C        36.4083076308       28.7066576579        0.7254194287
  C        25.6854345444        8.6323515277        0.6993444067
  C        25.6621385032        8.6381854337        3.5113018297
  C        38.3272454630       31.9611165818       10.1570984681
  C        37.6011920869       30.8884294135       10.8972802770
  C        36.6691175343       31.1988107935       11.8996870964
  C        36.0522039294       30.1820773986       12.6263734847
  C        36.3520426218       28.8278508899       12.3754149215
  C        37.2625714263       28.5275235348       11.3433494115
  C        37.8815280410       29.5409090235       10.6176858220
  C        35.7354313126       27.7307468199       13.1574366664
  C        35.7348355499       27.7273907083       14.5804918409
  C        36.4275168893       28.7155839288       15.3481237459
  C        46.1355605966       26.6209145897       15.2813813283
  C        46.0878835185       26.5804041106       12.4734725332
  C        22.4676826783        3.2558064192       10.2487306310
  C        23.1766015906        4.3670100350       10.9516600554
  C        24.1884689907        4.0861522959       11.8834092949
  C        24.8251887953        5.1210550649       12.5639927358
  C        24.4689492966        6.4654184445       12.3361733704
  C        23.4838308671        6.7393487369       11.3689461425
  C        22.8434106048        5.7049968729       10.6876678737
  C        25.0932719042        7.5664108392       13.1111463478
  C        25.0708648859        7.5594483098       14.5337942266
  C        24.3745589361        6.5581316307       15.2820754854
  C        26.6490865184       17.9185886934        5.6954246967
  C        25.3474444865       18.0137156502        4.9765606614
  C        25.1084472890       18.9990675074        4.0058511844
  C        23.8802865378       19.0499509588        3.3473160300
  C        22.8602247776       18.1183360411        3.6329457885
  C        23.0980303027       17.1600330182        4.6364137695
  C        24.3228650736       17.1049223420        5.2946587678
  C        21.5819878261       18.1031947700        2.8795180332
  C        21.5788895821       18.0574486105        1.4576665759
  C        22.7831549142       17.9193317288        0.6974630925
  C        34.3607918616       17.3179583325        5.7231440213
  C        35.6790238564       17.2181558291        5.0352306890
  C        35.9084305015       16.2115932400        4.0834645503
  C        37.1139355147       16.1600721392        3.3904145718
  C        38.1219769679       17.1169669937        3.6243886914
  C        37.9007041622       18.0942237814        4.6127720110
  C        36.6945021712       18.1472773476        5.3079821340
  C        39.3805294539       17.1122142639        2.8446630572
  C        39.3662026928       17.1106445131        1.4226000949
  C        38.1539299731       17.2275909004        0.6718500244
  C        20.3302060983       18.0550397402        0.7535450884
  C        20.3587074534       18.0956639568        3.5665458862
  C        34.4548661288       17.2007783541       10.0653799075
  C        35.7376122927       17.1238793817       10.8224628789
  C        35.9291839118       16.1500635497       11.8147979681
  C        37.1071663040       16.1266957645       12.5587062277
  C        38.1259237387       17.0728507802       12.3294881271
  C        37.9360990875       18.0257336029       11.3103644602
  C        36.7563246627       18.0569646033       10.5721781640
  C        39.3765461514       17.0814121453       13.1240018699
  C        39.3643017552       17.0945628504       14.5460009934
  C        38.1524678917       17.2178725665       15.2950962064
  C        35.0940974750       26.6527988844       15.2822332315
  C        35.1467776971       26.6596600685       12.4722844871
  C        26.5712650933       17.8265127985       10.3182290475
  C        25.2553342373       17.8822793487       11.0198541762
  C        24.9885960770       18.9081930577       11.9393609169
  C        23.7693530644       18.9485245724       12.6094831518
  C        22.7878767268       17.9623414999       12.3860449524
  C        23.0491127725       16.9602210775       11.4337944794
  C        24.2686163811       16.9185765989       10.7601136872
  C        21.5244464122       17.9597911233       13.1602619916
  C        21.5491057527       17.9826999300       14.5815644925
  C        22.7688332070       17.8834017323       15.3222014233
  C        14.0456077352       17.8314173488       10.2863872356
  C        15.3496362549       17.8969014380       11.0088438811
  C        15.6055687204       18.9159595347       11.9394323001
  C        16.8146071562       18.9488741117       12.6305572639
  C        17.8002906740       17.9652168783       12.4132904196
  C        17.5487909465       16.9691690707       11.4509845527
  C        16.3394064900       16.9324082851       10.7603209462
  C        19.0691874941       17.9641630639       13.1804872088
  C        19.0685283763       17.9903031434       14.6027334475
  C        17.8630912248       17.9005392485       15.3676507807
  C        46.7995694742       17.2107025829       10.1477026096
  C        45.4963266966       17.1294791441       10.8684767843
  C        45.2832742971       16.1411334307       11.8417795813
  C        44.0928684648       16.1101465819       12.5630850446
  C        43.0853384457       17.0673050009       12.3329846515
  C        43.2924890017       18.0303448117       11.3270407929
  C        44.4839327922       18.0652841828       10.6066318006
  C        41.8335469646       17.0770214230       13.1240952365
  C        41.8490394036       17.0834774867       14.5464362797
  C        43.0626794292       17.1849160864       15.2967705366
  C        20.3156126639       18.0199223634       15.3087790193
  C        20.2917294799       17.9317869081       12.4962302799
  C        46.7836864766       17.2360726661        5.8774140644
  C        45.4873395714       17.1381405486        5.1411414645
  C        45.2780678659       16.1466150314        4.1694237173
  C        44.0960755635       16.1194553345        3.4313338921
  C        43.0874516488       17.0801775150        3.6451376648
  C        43.2899335310       18.0453008595        4.6507971982
  C        44.4734567124       18.0791117718        5.3836658137
  C        41.8370759969       17.0914605168        2.8484198340
  C        41.8509147219       17.0888862293        1.4254208006
  C        43.0638901985       17.1851544977        0.6739458845
  C        46.1533389524       26.6373067418        0.7261575341
  C        46.1624436609       26.6561420189        3.5358027106
  C        14.0495670882       17.8401252814        5.7102986917
  C        15.3722811936       17.9408644474        5.0225034830
  C        15.6248258329       18.9689795763        4.1008888143
  C        16.8511733165       19.0377602210        3.4430130014
  C        17.8564727288       18.0784676246        3.6794581456
  C        17.6106855275       17.0792940754        4.6397151637
  C        16.3856517186       17.0098862638        5.3016513434
  C        19.1231453295       18.0841109558        2.9047793019
  C        19.0964477150       18.0513188369        1.4823709282
  C        17.8767830340       17.9266270403        0.7440065509
  C        28.8201662605       14.0827192561       10.2729083048
  C        28.2109339452       12.9241230520       10.9876243724
  C        28.9239556684       12.2206220890       11.9701044612
  C        28.3260427176       11.1572245182       12.6430119388
  C        27.0009574738       10.7690620960       12.3566261929
  C        26.3093033659       11.4561570141       11.3419241682
  C        26.9031129583       12.5218342506       10.6704936310
  C        26.3337485290        9.6874504191       13.1194664097
  C        26.3056717053        9.7124816419       14.5410421811
  C        26.7922262269       10.8281807873       15.2926624276
  C        32.1903736746       21.2030725281       10.1450877366
  C        32.7702377057       22.3752068250       10.8653740865
  C        32.0182504370       23.0449965487       11.8431093388
  C        32.5764686799       24.0980416027       12.5623127513
  C        33.9040338170       24.5087629405       12.3297153083
  C        34.6378858723       23.8558897983       11.3207672782
  C        34.0814239781       22.8001425258       10.6008806492
  C        34.5255871241       25.5909323832       13.1289047454
  C        34.5083678414       25.5670568757       14.5513610472
  C        33.9992097515       24.4522710177       15.2883063461
  C        25.6950322672        8.6299671711       15.2540415142
  C        25.7098072658        8.6312621186       12.4408162598
  C        32.0057692050       21.1798201222        5.7596879369
  C        32.5685969619       22.3563758594        5.0430667603
  C        31.8575549346       22.9990766905        4.0169664584
  C        32.4369603016       24.0572200160        3.3190999364
  C        33.7417664260       24.4999368005        3.6204470373
  C        34.4280019053       23.8738364054        4.6795782777
  C        33.8544656974       22.8157085848        5.3769012370
  C        34.4008023996       25.5807284344        2.8506717969
  C        34.4439994028       25.5620735009        1.4283908352
  C        33.9667710010       24.4508758140        0.6645722513
  C        40.6083636457       17.0793458079        0.7078227988
  C        40.6074359997       17.1204563413        3.5184065872
  C        28.6867416684       14.1288312352        5.7003469298
  C        28.0848560275       12.9643479838        4.9945192703
  C        28.8091516575       12.2801702096        4.0059341909
  C        28.2343312122       11.2068972257        3.3324551484
  C        26.9160590460       10.7950120952        3.6135238125
  C        26.2111046765       11.4640214593        4.6326040676
  C        26.7862032270       12.5346839338        5.3139545042
  C        26.2766984912        9.7042956519        2.8405451428
  C        26.2766588382        9.7227184942        1.4179356090
  C        26.7756270672       10.8349354448        0.6685192830
  C        18.1356439656        3.1795300867       10.3176282859
  C        17.4057155153        4.2767243007       11.0159632823
  C        16.3901750340        3.9984169491       11.9436827192
  C        15.7421993825        5.0384948863       12.6068855665
  C        16.0938450655        6.3822670768       12.3669719526
  C        17.0832425098        6.6516984658       11.4032072466
  C        17.7323975412        5.6142805631       10.7382855484
  C        15.4695060198        7.4901644290       13.1298927629
  C        15.4849141140        7.4898082802       14.5516338671
  C        16.1865448901        6.4963119652       15.3048918512
  C        42.9454632144       31.8596527180       10.0725284115
  C        43.6457120075       30.7721363109       10.8169975699
  C        44.5913588194       31.0934329961       11.8029614036
  C        45.1971756987       30.0878698651       12.5505559337
  C        44.8708412630       28.7347861188       12.3356816991
  C        43.9448933503       28.4204828056       11.3225638017
  C        43.3359265320       29.4256311740       10.5746430888
  C        45.4885804269       27.6554642520       13.1387873122
  C        45.4927662170       27.6810222288       14.5604945574
  C        44.8056273947       28.6890029490       15.3071638826
  C        14.8560819878        8.5624607284       15.2639217686
  C        14.8743612986        8.5620049763       12.4512291573
  C        42.9462474112       31.9616795560        5.8090649774
  C        43.6916251375       30.8854728229        5.0956032341
  C        44.6562678097       31.1913749846        4.1233616065
  C        45.2777841316       30.1718138109        3.4055646692
  C        44.9539719152       28.8214954348        3.6430968215
  C        44.0204220977       28.5238247838        4.6538121178
  C        43.3921705264       29.5405748308        5.3660569165
  C        45.5630436650       27.7241112155        2.8577977848
  C        45.5332937526       27.7174038587        1.4364909402
  C        44.8269197153       28.7076131864        0.6835593222
  C        35.0666168870       26.6479374436        0.7280551045
  C        35.0175795077       26.6351381848        3.5386590836
  C        18.1483713660        3.2466685289        5.7065479722
  C        17.4299626146        4.3436228429        4.9972179568
  C        16.4145004853        4.0524118577        4.0739056016
  C        15.7662528523        5.0830729798        3.3984927259
  C        16.1211777530        6.4282911905        3.6209442022
  C        17.1128569907        6.7116158685        4.5779070989
  C        17.7604805954        5.6826723158        5.2577034759
  C        15.4906064319        7.5239804238        2.8484839472
  C        15.4962873301        7.5071751792        1.4273391526
  C        16.1929672859        6.5053676091        0.6807042134
  H        10.6724606792       12.4658720211        3.9044295619
  H        11.6946427175       10.5511883313        2.6624632485
  H        15.3916148596       11.1685050453        4.7721907011
  H        14.3513551475       13.0712642335        6.0173673996
  H        13.3762062476       11.6309626665        1.2008010340
  H        50.3226906029       22.7481727994        3.9865714476
  H        49.3196283854       24.6226044436        2.6805286822
  H        45.6424797485       24.1617497537        4.8641078340
  H        46.6633169519       22.2907639472        6.1723964209
  H        47.6300262400       23.5760335587        1.2459713441
  H        14.8724107567        8.5883668475        4.6083469801
  H        50.2868863112       22.7023161212       12.0604622729
  H        49.2690991615       24.5753255413       13.3603582577
  H        45.6107274479       24.1097487103       11.1454730195
  H        46.6526835735       22.2542821607        9.8313120145
  H        47.6079931366       23.5520638144       14.7966730339
  H        40.6057742378       17.0567020962       11.3649967234
  H        48.6870537168       14.0953648143        7.8002049655
  H        10.6815791015       12.4671114273       12.0938295253
  H        11.6896074916       10.5249868796       13.2972437927
  H        15.3928640955       11.1575061731       11.2041509428
  H        14.3646413643       13.0860530570        9.9890746284
  H        13.3758692539       11.6217346720       14.7526770922
  H        47.9303319892       14.2195986412        9.7108648815
  H        47.7798040732       14.3738492806        6.4953233672
  H        49.0818167735       18.5511243630       10.8662543526
  H        10.4162662573       14.1343873468        7.9987793276
  H        24.4683410034        3.0340839150        3.8874944179
  H        25.5920818546        4.8878878247        2.6436026273
  H        23.2048519578        7.7571335801        4.7807376540
  H        22.1004716752        5.8937759439        6.0275719919
  H        23.8100346839        5.7947433982        1.1925293141
  H        36.3707672986       32.1973513668        3.9681363035
  H        35.2181179575       30.3904407746        2.6951148434
  H        37.4493367130       27.4372151997        4.8862778054
  H        38.5837207226       29.2577841574        6.1680450343
  H        36.9743545494       29.4545027983        1.2730971197
  H        25.6901710558        8.6191191217        4.5993510405
  H        36.4481202629       32.2434938280       12.1066631472
  H        35.3238270560       30.4300989823       13.3952727856
  H        37.5075371692       27.4867378377       11.1419815620
  H        38.6062084551       29.3122498526        9.8399743185
  H        37.0091631853       29.4700878707       14.8262550306
  H        46.1092840942       26.5878537425       11.3854354579
  H        44.6704769043       35.1164066063        7.8104915057
  H        24.4648977613        3.0486485314       12.0571802312
  H        25.6113673126        4.8972669027       13.2819139419
  H        23.1986346837        7.7729260274       11.1835511264
  H        22.0654979523        5.9129695074        9.9567333074
  H        23.8134221829        5.7996082894       14.7442415364
  H        44.9539675535       34.3893617546        9.6945617828
  H        44.9000600839       34.2059089223        6.4886627571
  H        40.6645370886       33.2091547032       10.8518420421
  H        23.1514314650        1.9587059567        7.9998683832
  H        25.8946450413       19.7151986456        3.7767718639
  H        23.6995937563       19.8186380937        2.5990306232
  H        22.3233883375       16.4314060527        4.8663183501
  H        24.5156757886       16.3501354669        6.0528190069
  H        23.7259238988       17.8084601450        1.2248137460
  H        35.1257350673       15.4785295370        3.9010025438
  H        37.2912958035       15.3746323217        2.6588719568
  H        38.6720257583       18.8381266946        4.8014365809
  H        36.5081701614       18.9184539204        6.0517841829
  H        37.2183323185       17.3615842401        1.2069220688
  H        20.3685792645       18.1447137824        4.6540627214
  H        35.1374127035       15.4278671867       12.0003083615
  H        37.2523304675       15.3661063392       13.3227604894
  H        38.7124320119       18.7660440672       11.1285898245
  H        36.5938958929       18.8110120327        9.8058954937
  H        37.2161921171       17.3413249710       14.7579487819
  H        35.1267913545       26.6845898202       11.3843466747
  H        28.4909533179       21.1331704273        8.0077684625
  H        25.7500444765       19.6651383117       12.1126295689
  H        23.5634167810       19.7480174721       13.3179042488
  H        22.3003247188       16.1910123396       11.2560267671
  H        24.4857428461       16.1325343118       10.0407901263
  H        23.6997490808       17.7458830678       14.7802685766
  H        29.0162629461       21.7031961417        9.7807087327
  H        29.0369944689       21.8578854114        6.6091293232
  H        32.1099108624       18.4441053376       10.8595665133
  H        27.3492790667       19.1005345350        8.1029826808
  H        14.8465758882       19.6772694319       12.1047555558
  H        17.0113309596       19.7454113319       13.3449209163
  H        18.3002633634       16.2020027754       11.2758443514
  H        16.1326414619       16.1514752411       10.0323866912
  H        16.9199434592       17.7749000759       14.8438067311
  H        46.0691706123       15.4132457990       12.0292047121
  H        43.9302167107       15.3389023394       13.3127770796
  H        42.5219491468       18.7763238934       11.1436110203
  H        44.6615568036       18.8254267330        9.8494623801
  H        44.0006430024       17.2955166666       14.7602729717
  H        20.2831618362       17.9378312488       11.4077368736
  H        46.0569788392       15.4075899912        3.9954861406
  H        43.9407928933       15.3453741050        2.6828977190
  H        42.5209978548       18.7952120836        4.8248039407
  H        44.6445424102       18.8436304223        6.1377608432
  H        44.0027289523       17.2956130428        1.2089336770
  H        46.1993459155       26.6827266809        4.6232454642
  H        52.7410524224       21.0627305150        8.1945983929
  H        14.8489723490       19.7086893366        3.9163729349
  H        17.0423589555       19.8387505540        2.7320284476
  H        18.3769328923       16.3309955771        4.8318477615
  H        16.1843036324       16.2245158770        6.0264141007
  H        16.9440307053       17.8206883214        1.2897244321
  H        52.3222374888       21.6733650652        6.2946011692
  H        52.0133302108       21.7021976344        9.4956770631
  H        49.0683249399       18.6077724015        5.2031565252
  H        13.2473786402       19.0173671635        7.9773811724
  H        29.9445353732       12.5221404953       12.1950952183
  H        28.8836207134       10.6127485267       13.4019510403
  H        25.2849468364       11.1697942656       11.1126022720
  H        26.3629298883       13.0717955080        9.9038729617
  H        27.1544681037       11.7021714579       14.7595110356
  H        31.0005202447       22.7151697006       12.0375365131
  H        31.9857388797       24.6150960245       13.3152828222
  H        35.6656988780       24.1604800566       11.1342352686
  H        34.6564455087       22.2734272646        9.8428714311
  H        33.6575713629       23.5767432346       14.7437509185
  H        25.7501105227        8.6111272787       11.3531451054
  H        30.8594576787       22.6473102474        3.7649303464
  H        31.8783269305       24.5531907111        2.5284588567
  H        35.4363945952       24.2019996206        4.9229066933
  H        34.3949671759       22.3126727389        6.1749416561
  H        33.5999970076       23.5730867773        1.1883756228
  H        40.6052100638       17.0966348100        4.6066050119
  H        32.5092593274       14.2154192277        7.9260726421
  H        29.8212545084       12.6029106587        3.7759177026
  H        28.8047769678       10.6753660973        2.5742564482
  H        25.1914677364       11.1588112129        4.8586395687
  H        26.2364894726       13.0671862226        6.0864289843
  H        27.1259106135       11.7152017429        1.1997385735
  H        33.2994049309       14.4290940727        6.1291962729
  H        33.4156909971       14.3384863960        9.2895265790
  H        31.9398659387       18.6517133186        4.8813364415
  H        30.2029451568       14.2062409272        7.9012504131
  H        16.1186959073        2.9618464571       12.1305844961
  H        14.9528208675        4.8190774517       13.3226154468
  H        17.3657777266        7.6845339475       11.2100200874
  H        18.5144564487        5.8169930591       10.0104882127
  H        16.7530463683        5.7389081797       14.7714214839
  H        44.8277433531       32.1404877840       11.9771499911
  H        45.9371276866       30.3416532415       13.3064078733
  H        43.6822446684       27.3784120498       11.1523901978
  H        42.5992553995       29.1903172508        9.8100215870
  H        44.2302426506       29.4367654751       14.7688843600
  H        14.8506149942        8.5451206977       11.3630088788
  H        44.8998199160       32.2340575067        3.9319309443
  H        46.0247115544       30.4130926779        2.6523637092
  H        43.7634065407       27.4840957780        4.8453026347
  H        42.6455685096       29.3177941373        6.1244128997
  H        44.2684094661       29.4704786952        1.2181747426
  H        34.9618793536       26.6526924566        4.6255979509
  H        36.6077510083       35.1343043772        8.1849748937
  H        16.1431677635        3.0128551003        3.9044408466
  H        14.9737559657        4.8562572728        2.6885908285
  H        17.3966628963        7.7470434564        4.7545574018
  H        18.5435354728        5.8931287664        5.9822748351
  H        16.7645248472        5.7552524724        1.2191860491
  H        36.2780324505       34.4831972686        6.2733012915
  H        36.3859116801       34.2072723080        9.5001562285
  H        40.5781588573       33.2022115551        5.1537712932
  H        17.4755565678        1.9451280701        7.9765818267
  H        29.2402670845       19.2198767294       12.5300805067
  H        30.5970021413       15.4074192591        3.5180215645
  H        31.4845454178       15.5323003599       12.3510411896
  H        28.3210751309       17.5998531632       14.5244139305
  H        29.9464578972       15.4524601595       14.6254586660
  H        31.7607813722       18.9770088567        1.5419121466
  H        33.5699943814       15.9265345021        1.5086775406
  H        28.2696805845       15.2875062577        1.3301435736
  H        32.4887295691       18.9414068947       15.4189104669
  H        18.9041136214        0.8511969633       12.3633782250
  H        40.5246525166       35.2296248205        3.9513913300
  H        42.3246021556       34.4192428537        3.5894778072
  H        22.0966437608        0.6996100274       12.3428758577
  H        11.5971754291       18.7123974345       12.3820183858
  H        52.2648870276       18.4309149905        3.6774866473
  H        49.2550910277       16.4767192595        3.5845158659
  H        10.1501872517       15.7984617445       12.2931868176
  H        50.8500150953       17.6923757747        3.9540681975
  H        10.0460820962       17.3949229538       12.0519287124
  H        20.2922209122        0.0044810907       12.0340256386
  H        39.1818665072       36.1253965406        3.6893525843
 Ni        30.1407399809       17.3096254891        2.1668194903
 Ni        31.6690909247       16.5632483993       -0.1650875868
 Ni        30.0180162290       18.4510566056        0.0837330995
 Ni        30.2278523820       17.2521854765       13.0771551754
  O        10.6499401436       14.3652126783        5.4858914326
  O        12.6132585645       14.6577250804        6.5838470077
  O        49.1477815368       16.8458899989        7.9896841976
  O        50.3501544570       20.9357218909        5.6479213373
  O        48.3484867049       20.5932270437        6.6658487609
  O        11.0514608589       17.0535553545        6.5007483709
  O        50.3209228430       20.8816301694       10.4067631616
  O        48.3466823714       20.5865834096        9.3269815123
  O        49.5439271173       18.2483153309       10.0679216643
  O        12.3594032309       18.6244429787        7.9993349955
  O        48.6930749310       14.1488415128        6.7512905875
  O         8.2099714484       14.2105450716        9.3224295804
  O        10.7353381187       14.5067396508       10.6643259487
  O        12.5718099996       14.5829452709        9.3284018508
  O        22.8454395419        2.0452640545        5.4852580322
  O        21.6076381102        3.5941431588        6.5867104092
  O        42.0591335617       34.1369081818        7.9766838224
  O        37.9814499398       33.1355727190        5.5718208447
  O        39.2159084399       31.5737047462        6.6640744747
  O        20.3092638293        1.0400673223        6.5013393196
  O        38.0251022696       33.1853937964       10.4164271333
  O        39.2182196113       31.5830175493        9.3273488763
  O        40.6542607686       33.7681101101       10.0579245161
  O        18.2599995508        1.3734635748        7.9981401304
  O        44.6227086233       35.1003729205        6.7568466765
  O        24.2068306059       -0.0001417373        9.3203219859
  O        22.7534807295        2.0581201508       10.5830303146
  O        21.6241918401        3.5950153848        9.3400160756
  O        27.5843746824       18.7616424917        5.4071051500
  O        26.7359020217       17.0043034319        6.5821261984
  O        30.6488227483       19.4137746906        8.0005556655
  O        33.4567949387       16.4797042257        5.3962678468
  O        34.2212857814       18.2547232259        6.5834734798
  O        29.5193992945       17.1243521020        6.5017073473
  O        33.5947865916       16.2689421484       10.2352352520
  O        34.3015806164       18.2264358998        9.3090669682
  O        31.6869703072       18.2526528022       10.0032829035
  O        30.3118633374       15.1712754595        7.9112173163
  O        28.5107445399       21.0999310105        6.9159379550
  O        28.5193631047       20.9536573595        9.4097750297
  O        27.4599604751       18.6765552339       10.6547610970
  O        26.6945741905       16.9271158675        9.4065676095
  O        13.1465400847       18.6937838338       10.5862523868
  O        13.9192242508       16.9163976405        9.4049622147
  O        50.5958345611       19.3500081642        8.0198687455
  O        47.6824657522       16.3268746152       10.4167066997
  O        46.9511980134       18.1758425331        9.3238403445
  O        11.0701453745       17.0151982081        9.4891637102
  O        47.6732550067       16.3363793588        5.6510189308
  O        46.9228706596       18.2354283522        6.6608468823
  O        49.5683879244       18.3175698819        5.9820216654
  O        10.3187871552       15.1002317916        7.9970267122
  O        52.6707230856       21.0279125258        9.2417821844
  O        12.1467727188       20.8912512306        6.6733283223
  O        13.1064750115       18.6147854179        5.3258015528
  O        13.9608904619       16.9892273950        6.6618326252
  O        30.0156512949       14.4264471990       10.5599015869
  O        28.0821833951       14.6558285239        9.3968950307
  O        32.0387005314       16.9292601973        7.8430189020
  O        30.9866973581       20.8806690823       10.4125488838
  O        32.9545498034       20.5891123555        9.3183020931
  O        29.5660047462       17.0697013172        9.4822782994
  O        30.7912819506       20.8237332565        5.4937309734
  O        32.7795878682       20.5874919176        6.5823109761
  O        31.4698673951       18.3120825667        5.6593284616
  O        28.2282674283       18.6885971780        8.0709339860
  O        32.4936961146       14.2146522586        9.0004033362
  O        32.4019874580       14.3576862892        6.4943535644
  O        29.8523757437       14.5149185262        5.3269295124
  O        28.0044681566       14.6519001471        6.6507443687
  O        17.8898171605        1.9653012357       10.6634075474
  O        18.9562553515        3.5265062848        9.4082407286
  O        39.1691738821       34.1388955750        7.9993698227
  O        43.2803347677       33.0592679707       10.3313249348
  O        42.0343592960       31.5066008194        9.2413984460
  O        20.3213539820        1.0371454030        9.4783918143
  O        43.2760680040       33.1825901039        5.5747523791
  O        42.0051329282       31.5842228228        6.5829876269
  O        40.5788366170       33.7750353700        5.9357942538
  O        22.3686015931        1.3850129723        7.9968764498
  O        36.6742686988       35.0996429075        9.2358726292
  O        16.4461099606        0.0645130442        6.6679808761
  O        17.9363472841        2.0431297588        5.3266309594
  O        18.9189886638        3.5930678860        6.6659200502
  O        29.8590124963       18.7604019797       11.9283550631
  O        31.0464388959       16.2649041191        3.6680495720
  O        31.3492353595       16.3425935031       11.8221483197
  O        32.8314313898       16.5584636992        1.5003588716
  O        29.1449493342       14.8699232252        1.2487627127
  O        30.7555166256       15.8945168179       14.3061773289
  O        31.7579628879       18.3981761286       15.0728167455
  O        30.7990412746       19.0614777630        1.6835408545
  O        29.1441316909       18.1017024004       14.4074326559
  O        39.4555082463       35.2439153908        4.0021754598
  O        19.2009450972        0.0036178445       11.9878683136
  O        41.9699416520       35.1725783593        4.0867165824
  O        21.7010110870       -0.0687506256       11.8978476777
  O        51.3649754888       18.6142210965        4.0053002682
  O        10.7511348337       18.7470381307       11.9049088282
  O        50.0795363936       16.4127786039        4.0917916479
  O         9.5244200116       16.4831960173       11.9911757042
 Zr         9.2966885351       16.0526956135        6.1824478743
 Zr        49.8375647135       16.0068302495        9.7465745980
 Zr        22.0728724557        0.0312741628        6.1860220717
 Zr        42.4635130133       35.1523251831        9.7914337133
 Zr        29.5549493302       19.1646612160        6.3390110244
 Zr        29.5737793957       19.1366116408        9.8675439434
 Zr        11.0377285235       19.0519033927        9.8275897789
 Zr        11.0443126575       19.1545815158        6.2506333257
 Zr        31.3530239315       16.0664104212        9.6934597371
 Zr        31.2907090743       16.1069958892        6.0201356568
 Zr        18.6074013549        0.0004249220        9.7755502580
 Zr        18.5061473488       -0.0091277757        6.2169327940
 Zr        12.3034437945       16.3236775785        7.9892527956
 Zr        48.6161846046       18.8328718015        8.0094775078
 Zr        20.3152735167        2.4744740285        7.9891845578
 Zr        40.6405924779       32.6871427576        7.9773801077
 Zr        28.3111674650       16.3554933949        8.0191994369
 Zr        32.6336581587       18.8471897296        7.9849618135
  H        28.9219463216       17.9146522221        1.0920588692
  H        29.7214522165       15.6247128494        0.9330693781
  H        32.2791780592       16.3851879040        2.3299605795
