     566
 i =      115, E =     -4712.2576934981
  C        11.8588015794       14.0536271045        5.7416821548
  C        12.4563751909       12.8907412127        5.0233903948
  C        11.7048105867       12.1720385003        4.0814387938
  C        12.2811878642       11.1098548047        3.3890591714
  C        13.6216670239       10.7397873443        3.6169951781
  C        14.3546803133       11.4430957152        4.5907954176
  C        13.7817770171       12.5080252401        5.2823735870
  C        14.2611738906        9.6491146208        2.8435672746
  C        14.2562933684        9.6569389475        1.4218548273
  C        13.7430910639       10.7590148565        0.6678985759
  C        49.1268345753       21.2331244550        5.8796879057
  C        48.5501115575       22.4009720909        5.1525222557
  C        49.3001610994       23.0683365268        4.1715554637
  C        48.7332424255       24.1075035374        3.4383830497
  C        47.4026916188       24.5091640283        3.6669818988
  C        46.6717353666       23.8602549198        4.6804788805
  C        47.2341598856       22.8153205903        5.4098036374
  C        46.7724581905       25.5868915490        2.8697200484
  C        46.7615149975       25.5573275282        1.4479519627
  C        47.2614573692       24.4422539865        0.7044342626
  C        14.8601881180        8.5705771631        0.7085789459
  C        14.8919860890        8.5971527285        3.5202033084
  C        49.1133167309       21.2033482709       10.1453263330
  C        48.5280167034       22.3647719063       10.8724115038
  C        49.2672163382       23.0254720865       11.8653700165
  C        48.6909217521       24.0600559792       12.5968164393
  C        47.3605370040       24.4569263538       12.3585332836
  C        46.6401643936       23.8120772730       11.3349367481
  C        47.2136934747       22.7761449113       10.6031709934
  C        46.7220841680       25.5318849396       13.1495871837
  C        46.7338005017       25.5282152815       14.5712955101
  C        47.2492181615       24.4289906533       15.3276722610
  C        40.6105733642       17.1122160490       15.2885839057
  C        40.6121706530       17.1370773644       12.4786205483
  C        11.8829930506       14.0865472449       10.2854635683
  C        12.4721160263       12.9105643396       10.9894439258
  C        11.7146339574       12.1777129884       11.9158901853
  C        12.2810704596       11.0951869218       12.5843053567
  C        13.6197358344       10.7210137600       12.3522083141
  C        14.3575744688       11.4360942008       11.3909190377
  C        13.7923198275       12.5173617453       10.7182363757
  C        14.2533181357        9.6243093539       13.1227080281
  C        14.2521569849        9.6443951279       14.5445595047
  C        13.7423697194       10.7533819166       15.2916386219
  C        22.5118062940        3.2431200159        5.7541451865
  C        23.2275822659        4.3469306389        5.0556842354
  C        24.2240246781        4.0647430444        4.1096997046
  C        24.8519444557        5.1031343810        3.4272769008
  C        24.4983519318        6.4448193243        3.6714066655
  C        23.5305967130        6.7185467951        4.6549044744
  C        22.8980700505        5.6820637248        5.3357452160
  C        25.1021116752        7.5510812925        2.8954117810
  C        25.0688369267        7.5462989456        1.4742510785
  C        24.3686088935        6.5454106697        0.7286051503
  C        38.3001360124       31.9260713759        5.8471022124
  C        37.5643824316       30.8373410777        5.1364481225
  C        36.6029804814       31.1452652448        4.1609557420
  C        35.9752001950       30.1291951840        3.4442773957
  C        36.2914529532       28.7762842551        3.6791210886
  C        37.2244546374       28.4759002819        4.6902757939
  C        37.8565328955       29.4909888111        5.4059812673
  C        35.6766168075       27.6875638868        2.8816785125
  C        35.7077988735       27.7003681688        1.4589751248
  C        36.4158382242       28.6993677550        0.7189845515
  C        25.6840157168        8.6206049802        0.7546799301
  C        25.7013620840        8.6239926179        3.5665182148
  C        38.3247307020       31.9593108441       10.1562867298
  C        37.5945649708       30.8854285593       10.8945181012
  C        36.6614950151       31.1949889592       11.8965962597
  C        36.0409034584       30.1782305599       12.6211415673
  C        36.3371566847       28.8230017924       12.3699756128
  C        37.2478137218       28.5234757380       11.3375522527
  C        37.8703829277       29.5370155840       10.6137615287
  C        35.7202373133       27.7254960887       13.1546910268
  C        35.7299632766       27.7198125263       14.5781264571
  C        36.4257684707       28.7092621614       15.3418113387
  C        46.1357858584       26.6208437791       15.2814466134
  C        46.0880756049       26.5802254244       12.4735422924
  C        22.4604045898        3.2554650173       10.2575243050
  C        23.1532723991        4.3639667178       10.9808551091
  C        24.1551773584        4.0780814468       11.9219040414
  C        24.7815421148        5.1083425878       12.6189566841
  C        24.4258380147        6.4538252580       12.3974458724
  C        23.4473780227        6.7329779106       11.4245467760
  C        22.8164193248        5.7030477263       10.7279210468
  C        25.0533296142        7.5526885686       13.1727896220
  C        25.0439040347        7.5469391568       14.5955778605
  C        24.3549996464        6.5467295950       15.3516994363
  C        26.6199475269       17.8181155980        5.7480340048
  C        25.3091267845       17.8728363099        5.0356788643
  C        25.0442361252       18.8791470101        4.0927997764
  C        23.8269976536       18.9070846183        3.4157204701
  C        22.8383663250       17.9306613100        3.6552474214
  C        23.0984941691       16.9485172150        4.6300630541
  C        24.3166037725       16.9167461985        5.3080659388
  C        21.5684927531       17.9221019001        2.8847364417
  C        21.5811675042       17.9254667544        1.4617381043
  C        22.7934478842       17.8102658443        0.7109701441
  C        34.4477441548       17.1886660336        5.9163143200
  C        35.7381200922       17.1484152014        5.1686607653
  C        35.9437396208       16.1788783955        4.1741334071
  C        37.1217036042       16.1686913601        3.4326499892
  C        38.1287400741       17.1259790713        3.6652215581
  C        37.9259399201       18.0765222485        4.6839928135
  C        36.7442328762       18.0931194115        5.4223211758
  C        39.3800288855       17.1346780861        2.8721733908
  C        39.3672630288       17.1409004479        1.4499617056
  C        38.1557977008       17.2608812605        0.6989037994
  C        20.3414656276       17.9590598426        0.7418820423
  C        20.3375657012       17.9109871840        3.5560866289
  C        34.4101093934       17.2454500999       10.1872814704
  C        35.7168245669       17.1665886096       10.8984955884
  C        35.9264040737       16.1924364649       11.8871850192
  C        37.1185092552       16.1670878836       12.6056823984
  C        38.1308383599       17.1156544309       12.3592832673
  C        37.9262456396       18.0637794909       11.3384738931
  C        36.7329315553       18.0942082583       10.6209011444
  C        39.3834582214       17.1289294294       13.1496352330
  C        39.3687114538       17.1387731887       14.5719658366
  C        38.1563547917       17.2595581301       15.3220033232
  C        35.0967695044       26.6430353988       15.2845828500
  C        35.1227058635       26.6560535715       12.4736365888
  C        26.6498417756       17.8143829448       10.3447342934
  C        25.3454441720       17.8975213296       11.0682692526
  C        25.0938820493       18.9020328590       12.0154583064
  C        23.8636641589       18.9557273490       12.6703417350
  C        22.8542661384       18.0068799900       12.4046684475
  C        23.1048536386       17.0266638848       11.4267220899
  C        24.3319051871       16.9706202664       10.7706647881
  C        21.5768906330       17.9993214121       13.1609470878
  C        21.5846807655       17.9655610160       14.5827920454
  C        22.7946407211       17.8295867393       15.3349148503
  C        14.0555956343       17.8367516085       10.2834364912
  C        15.3723309051       17.9150692758       10.9918662468
  C        15.6335963637       18.9335350581       11.9226817361
  C        16.8506212702       18.9750486405       12.6024457120
  C        17.8456328185       18.0015932437       12.3766594387
  C        17.5904241471       17.0092186613       11.4105944463
  C        16.3725802033       16.9634255982       10.7317173656
  C        19.1160074589       17.9958899063       13.1513625206
  C        19.1021540574       17.9748272124       14.5748946283
  C        17.8884789774       17.8643003698       15.3245390847
  C        46.7999210579       17.2148075860       10.1529609610
  C        45.5003118478       17.1443444506       10.8830612933
  C        45.2833019554       16.1588295025       11.8585351799
  C        44.0950701494       16.1370563916       12.5845426061
  C        43.0927258609       17.1009402697       12.3584274359
  C        43.3046721785       18.0625819946       11.3519341935
  C        44.4935808662       18.0880536205       10.6265651475
  C        41.8403258531       17.1167734666       13.1503447669
  C        41.8534210604       17.1190284057       14.5726624666
  C        43.0670408628       17.2123274805       15.3242251183
  C        20.3421993767       17.9775671280       15.2959647172
  C        20.3490053465       17.9935671333       12.4821712955
  C        46.7851841008       17.2348974674        5.8815051288
  C        45.4870793054       17.1365931873        5.1523816494
  C        45.2730633438       16.1445730550        4.1827805640
  C        44.0885656146       16.1208677976        3.4495059774
  C        43.0857630609       17.0862117965        3.6671630185
  C        43.2922039347       18.0505925363        4.6719527467
  C        44.4776434113       18.0806268163        5.4004320177
  C        41.8360765281       17.1056876812        2.8726306422
  C        41.8516699709       17.1118883215        1.4507872587
  C        43.0662404391       17.2072604933        0.7011321331
  C        46.1535197449       26.6372319563        0.7262158386
  C        46.1624327273       26.6559739906        3.5358639824
  C        14.0437878119       17.8263104333        5.7018297586
  C        15.3586879212       17.8893135419        4.9958834410
  C        15.6345792004       18.9097249427        4.0731837488
  C        16.8596175318       18.9436640388        3.4099058067
  C        17.8383106800       17.9561134411        3.6422603745
  C        17.5666615733       16.9595501640        4.5977536001
  C        16.3439429306       16.9255915941        5.2651859545
  C        19.1103787736       17.9406035327        2.8786246660
  C        19.0997396695       17.9449177089        1.4560472885
  C        17.8874080243       17.8511291952        0.7011587153
  C        28.7998954651       14.0835658279       10.3943415305
  C        28.1869795861       12.9145424775       11.0820077507
  C        28.8926047331       12.2071733446       12.0669188612
  C        28.2917452577       11.1332076890       12.7174283974
  C        26.9708285470       10.7463937992       12.4113726253
  C        26.2886826606       11.4358895507       11.3926870211
  C        26.8875425583       12.5083478106       10.7378796320
  C        26.2982214701        9.6696923963       13.1712949443
  C        26.2774529198        9.7002171514       14.5922850201
  C        26.7650687360       10.8198081294       15.3385838226
  C        32.1180074442       21.2011672132       10.1876319507
  C        32.7034208934       22.3751734603       10.8978994767
  C        31.9655047136       23.0557010996       11.8796934311
  C        32.5391980270       24.1077121830       12.5886201942
  C        33.8673840115       24.5089095868       12.3416664872
  C        34.5849160895       23.8482945742       11.3257506723
  C        34.0142592933       22.7930535671       10.6166448897
  C        34.5043851864       25.5876491741       13.1348736379
  C        34.5031802133       25.5589785095       14.5575750440
  C        34.0033129143       24.4414141446       15.2978162062
  C        25.6752343864        8.6178170497       15.3101571493
  C        25.6684700846        8.6149440265       12.4973146952
  C        32.0944340059       21.1665826581        5.8359962665
  C        32.6575231731       22.3399483151        5.1030843791
  C        31.9300524852       22.9786716299        4.0867933071
  C        32.4975829893       24.0301056902        3.3685963655
  C        33.8089549253       24.4703441869        3.6404153590
  C        34.5160357297       23.8451257062        4.6861528653
  C        33.9521746499       22.7939341611        5.4040676418
  C        34.4495205546       25.5560995941        2.8592879228
  C        34.4749152001       25.5430199349        1.4363724485
  C        33.9896120231       24.4338760766        0.6745053365
  C        40.6095814280       17.1109307571        0.7341157474
  C        40.6079425983       17.1343247593        3.5441376502
  C        28.7458523671       14.0588919063        5.8151239902
  C        28.1323077921       12.9152839327        5.0793971442
  C        28.8576713570       12.2357601553        4.0890559158
  C        28.2746683552       11.1803161879        3.3925587829
  C        26.9503531726       10.7791522694        3.6608006668
  C        26.2426673949       11.4466527258        4.6778027665
  C        26.8240409065       12.5025626401        5.3764558440
  C        26.3054029785        9.6908675626        2.8892125586
  C        26.2840755057        9.7098723846        1.4677452923
  C        26.7675969120       10.8253151540        0.7144971099
  C        18.1353149182        3.1807772347       10.3171608161
  C        17.4059293412        4.2780072380       11.0157897741
  C        16.3900282610        3.9996386155       11.9431042585
  C        15.7422608242        5.0396148536       12.6065855391
  C        16.0942935512        6.3833279228       12.3670655028
  C        17.0839047499        6.6528606808       11.4035465322
  C        17.7330451994        5.6155287382       10.7385080310
  C        15.4698824783        7.4910277978       13.1300804293
  C        15.4852323319        7.4904371316       14.5517962373
  C        16.1868624531        6.4968738115       15.3049613599
  C        42.9457159708       31.8595061777       10.0728384193
  C        43.6461583151       30.7717908731       10.8167288843
  C        44.5917514674       31.0931802635       11.8027244356
  C        45.1975369335       30.0876844356       12.5504017197
  C        44.8711769429       28.7345951573       12.3355994480
  C        43.9453528855       28.4201888788       11.3223979882
  C        43.3364465795       29.4252801625       10.5743398317
  C        45.4888420583       27.6553393240       13.1388200318
  C        45.4930506085       27.6809616365       14.5605257377
  C        44.8060405098       28.6890444436       15.3071730186
  C        14.8562553747        8.5629444862       15.2641362669
  C        14.8745290166        8.5627298916       12.4514629238
  C        42.9464425977       31.9615694472        5.8090222117
  C        43.6916592214       30.8853796801        5.0955344323
  C        44.6564492712       31.1912873676        4.1234224188
  C        45.2779896043       30.1717077490        3.4056831971
  C        44.9540571101       28.8213909656        3.6431199415
  C        44.0203740481       28.5237194863        4.6537170533
  C        43.3920942356       29.5404772754        5.3659161098
  C        45.5631519293       27.7240074889        2.8578417000
  C        45.5335296003       27.7173672234        1.4365320543
  C        44.8272981582       28.7076556175        0.6835700029
  C        35.0837393949       26.6340905620        0.7309568800
  C        35.0620664512       26.6161357833        3.5415676240
  C        18.1485126656        3.2467853967        5.7065905187
  C        17.4299870884        4.3436565350        4.9971923898
  C        16.4144959383        4.0525194024        4.0738928711
  C        15.7662555148        5.0832255053        3.3985200700
  C        16.1212358903        6.4284157645        3.6210255904
  C        17.1129805528        6.7116704120        4.5779349574
  C        17.7605801609        5.6826854062        5.2576809608
  C        15.4907429071        7.5241793633        2.8486081856
  C        15.4964696738        7.5075028633        1.4274668376
  C        16.1931939094        6.5057712606        0.6807744612
  H        10.6727454745       12.4662870117        3.9042323364
  H        11.6949357063       10.5515356594        2.6623654900
  H        15.3916070312       11.1682643928        4.7727806095
  H        14.3511286421       13.0708891456        6.0181764437
  H        13.3761377543       11.6311977865        1.2011526430
  H        50.3228761939       22.7483281206        3.9868033472
  H        49.3197433054       24.6227925533        2.6808340774
  H        45.6422406541       24.1610175758        4.8636455084
  H        46.6631066618       22.2900713441        6.1718593891
  H        47.6299320469       23.5758334999        1.2460921949
  H        14.8724569583        8.5884281738        4.6085147866
  H        50.2872373020       22.7025797970       12.0603287077
  H        49.2693162333       24.5754674670       13.3603481264
  H        45.6107881347       24.1093833728       11.1458218488
  H        46.6528417780       22.2540600809        9.8315773985
  H        47.6079677155       23.5518567107       14.7967803140
  H        40.6124962233       17.1045093358       11.3906979643
  H        48.6868570536       14.0950920517        7.7998552372
  H        10.6812765978       12.4670468986       12.0935196968
  H        11.6892758968       10.5250539088       13.2972088243
  H        15.3928510787       11.1578318549       11.2046747875
  H        14.3646701006       13.0864218272        9.9894735548
  H        13.3754940392       11.6219781862       14.7530095230
  H        47.9301772330       14.2185163304        9.7111635845
  H        47.7798881636       14.3733495649        6.4949486472
  H        49.0825083811       18.5514096953       10.8667966255
  H        10.4161259428       14.1344411376        7.9989925590
  H        24.4834915349        3.0256681303        3.9196966270
  H        25.6248120411        4.8853478215        2.6933544768
  H        23.2514493097        7.7521049982        4.8487994002
  H        22.1282753404        5.8828652868        6.0768074657
  H        23.8116576253        5.7856280150        1.2691049350
  H        36.3710539172       32.1897151636        3.9660841350
  H        35.2298715841       30.3759293494        2.6912740769
  H        37.4792180918       27.4354079537        4.8812144565
  H        38.6008376339       29.2625244224        6.1653308723
  H        36.9828855611       29.4489190424        1.2634250024
  H        25.7436320862        8.6024132891        4.6539719695
  H        36.4423498654       32.2396459231       12.1059421202
  H        35.3129771614       30.4280131075       13.3899557748
  H        37.4910628259       27.4826821525       11.1339356575
  H        38.5949733035       29.3066675733        9.8363679869
  H        37.0014468113       29.4659383553       14.8165533469
  H        46.1094699540       26.5876382375       11.3855059072
  H        44.6684045731       35.1162170570        7.8139452404
  H        24.4337147981        3.0399876507       12.0885062193
  H        25.5621876980        4.8800399748       13.3414724971
  H        23.1616761273        7.7674043818       11.2447768553
  H        22.0450321168        5.9154419824        9.9912977413
  H        23.7871851225        5.7884038855       14.8204401027
  H        44.9542784670       34.3907230541        9.6953644872
  H        44.9022858335       34.2069319018        6.4906773872
  H        40.6651384096       33.2083443226       10.8526026215
  H        23.1502206483        1.9577386836        8.0055245816
  H        25.8020162323       19.6364179122        3.9051431442
  H        23.6277701413       19.6935435409        2.6909581805
  H        22.3480938619       16.1849570043        4.8248157508
  H        24.5276946038       16.1435364121        6.0432081718
  H        23.7289403447       17.6732273101        1.2455456228
  H        35.1630019389       15.4446066893        3.9905607646
  H        37.2777852237       15.4094227120        2.6694235020
  H        38.6938740733       18.8250912387        4.8679686844
  H        36.5729824148       18.8429500906        6.1912223776
  H        37.2195139781       17.3875268611        1.2349328118
  H        20.3343077128       17.9321399716        4.6445112177
  H        35.1352570786       15.4747283868       12.0919122092
  H        37.2775563258       15.4080975844       13.3685106602
  H        38.6999620993       18.8029392718       11.1413139094
  H        36.5577060915       18.8449483557        9.8538540206
  H        37.2200518525       17.3849971288       14.7858204731
  H        35.0933246059       26.6822680646       11.3858680814
  H        28.5057671778       21.1030416374        7.7809539262
  H        25.8703934317       19.6362581087       12.2205717854
  H        23.6714856142       19.7405477004       13.3989079969
  H        22.3388949831       16.2837615730       11.2137810129
  H        24.5340746441       16.2016695820       10.0293242971
  H        23.7312501847       17.7072427748       14.7993876711
  H        28.9268394930       21.7395136524        9.7188343059
  H        29.1925162719       21.7046537306        6.4498717354
  H        32.0967908243       18.6075448572       10.9983638966
  H        27.4011187093       19.0730900322        8.0131167251
  H        14.8709051743       19.6883615573       12.1011304340
  H        17.0431023753       19.7703445058       13.3195437821
  H        18.3450336648       16.2479362518       11.2231870890
  H        16.1685982705       16.1816936763       10.0036245086
  H        16.9504460264       17.7586636498       14.7873726107
  H        46.0637888666       15.4244394647       12.0434574909
  H        43.9299184353       15.3666698372       13.3346144039
  H        42.5393365310       18.8144216092       11.1705996329
  H        44.6731026396       18.8467314850        9.8683722195
  H        44.0059812416       17.3208153288       14.7889861106
  H        20.3532053320       18.0342880574       11.3942338657
  H        46.0499508204       15.4039953067        4.0066285983
  H        43.9268109606       15.3479775813        2.7012399355
  H        42.5252284374       18.8021013655        4.8474931179
  H        44.6547621634       18.8440072316        6.1541306733
  H        44.0046656982       17.3115760361        1.2380805571
  H        46.1992120273       26.6824872519        4.6233131437
  H        52.7410685377       21.0625648047        8.1948086354
  H        14.8799964900       19.6725444779        3.8941375399
  H        17.0722214046       19.7412294443        2.7012091968
  H        18.3113716567       16.1884514938        4.7842504883
  H        16.1221469948       16.1451164620        5.9891038174
  H        16.9483642142       17.7354890571        1.2343012849
  H        52.3222602251       21.6728704760        6.2941490183
  H        52.0125775345       21.7014368424        9.4956959563
  H        49.0683893260       18.6079394862        5.2037791068
  H        13.2477646668       19.0164533133        7.9746495347
  H        29.9059915850       12.5161026531       12.3132322131
  H        28.8406700293       10.5820313485       13.4777357866
  H        25.2682736781       11.1472027611       11.1492327386
  H        26.3581224838       13.0620142542        9.9664328222
  H        27.1126140248       11.6958317003       14.7995316213
  H        30.9457556313       22.7386538196       12.0844203699
  H        31.9599997643       24.6316747277       13.3457817157
  H        35.6121700570       24.1459373288       11.1253920247
  H        34.5772053976       22.2612248087        9.8530709224
  H        33.6553435076       23.5674213262       14.7548108493
  H        25.7044869711        8.5923999013       11.4095648621
  H        30.9252737152       22.6287038665        3.8603421930
  H        31.9234706056       24.5242663960        2.5878934760
  H        35.5311691920       24.1698192767        4.9051243054
  H        34.5079078913       22.2919739520        6.1924164397
  H        33.6316047630       23.5537490570        1.2008879199
  H        40.6069688850       17.1020462125        4.6320344707
  H        32.5081451937       14.1455599110        8.2634092361
  H        29.8783072293       12.5496065235        3.8825078650
  H        28.8444961549       10.6492411911        2.6332050961
  H        25.2179697136       11.1494310766        4.8912145506
  H        26.2740766527       13.0341347686        6.1493025378
  H        27.1163223400       11.7051018336        1.2475043092
  H        33.3114012248       14.2058236643        6.4617499319
  H        33.4058642563       14.3951649846        9.6100043344
  H        32.1219441444       18.4283782103        5.1352150199
  H        30.1964383200       14.1418977084        8.0989451175
  H        16.1178848515        2.9631360467       12.1293883094
  H        14.9526796096        4.8202259510       13.3220997084
  H        17.3665291067        7.6857230251       11.2106447254
  H        18.5152825707        5.8182074522       10.0108808477
  H        16.7534326850        5.7395525204       14.7714463954
  H        44.8280101240       32.1402764757       11.9768675016
  H        45.9374334804       30.3415346768       13.3062850787
  H        43.6827261065       27.3780999056       11.1522952170
  H        42.5998461133       29.1898779741        9.8096753895
  H        44.2307795405       29.4368887794       14.7688738646
  H        14.8507568309        8.5458834553       11.3632444150
  H        44.9001610645       32.2339590515        3.9321232132
  H        46.0250516238       30.4129748620        2.6526108821
  H        43.7632824214       27.4839958623        4.8451459613
  H        42.6454754490       29.3176646537        6.1242429081
  H        44.2688765884       29.4706063107        1.2181563672
  H        35.0167585151       26.6317665101        4.6289661748
  H        36.6052753562       35.1336829175        8.1808494965
  H        16.1431440290        3.0129834649        3.9043412596
  H        14.9737265095        4.8564674106        2.6886334547
  H        17.3968819282        7.7470758684        4.7545558675
  H        18.5437665913        5.8930694050        5.9821299396
  H        16.7647061902        5.7555942318        1.2192215439
  H        36.2785605106       34.4821945860        6.2730275794
  H        36.3809439845       34.2090891380        9.5000686339
  H        40.5795458376       33.2018033835        5.1538359741
  H        17.4709886426        1.9465749059        7.9741210886
  H        28.7883842480       18.6138656359        3.7406825664
  H        31.7389564852       15.6399832542        3.6001232196
  H        31.1835529691       15.3677144648       12.4516383433
  H        28.0682168784       17.9213696955       14.3526418174
  H        29.2631911809       14.8730108279       14.5844134285
  H        32.4005569470       17.0908493137        1.3381596152
  H        18.8538168211        0.8689295387       12.3352542145
  H        40.5282291219       35.2287694785        3.9520729217
  H        42.3240692039       34.4190362236        3.5901525512
  H        22.0874409406        0.6923332624       12.3513103851
  H        11.5971296420       18.7127537213       12.3828931621
  H        52.2649350407       18.4317092603        3.6774847929
  H        49.2545920520       16.4769280838        3.5850709505
  H        10.1501428078       15.7980146710       12.2927835132
  H        50.8501784094       17.6924317242        3.9540838509
  H        10.0460595203       17.3942979858       12.0520639595
  H        20.2154192327        0.0021116467       12.0418650973
  H        39.1838124084       36.1243688101        3.6866722048
 Ni        30.6482522830       17.5080582112        2.8254648289
 Ni        30.8650704796       16.0008769712       -0.0809310987
 Ni        29.7583005986       18.0205922343        0.1657947518
 Ni        30.1837907318       17.0865266816       13.4935329910
  O        10.6499886532       14.3651563552        5.4859287983
  O        12.6132677121       14.6577212164        6.5840252519
  O        49.1478152619       16.8459081596        7.9898108955
  O        50.3502845567       20.9356207736        5.6481504407
  O        48.3485730399       20.5932047076        6.6659479733
  O        11.0523001225       17.0532636497        6.5008685368
  O        50.3211305514       20.8815258796       10.4068154080
  O        48.3467943948       20.5866679457        9.3271057982
  O        49.5441307072       18.2483326838       10.0682623128
  O        12.3594686723       18.6244441265        8.0000154152
  O        48.6931800385       14.1487380056        6.7512232684
  O         8.2098330369       14.2106004977        9.3226589570
  O        10.7354517346       14.5068681512       10.6642844386
  O        12.5719802669       14.5830439070        9.3285261990
  O        22.8441716490        2.0419932234        5.4876385568
  O        21.6049938349        3.5916511928        6.5900744720
  O        42.0578466279       34.1370168400        7.9790078967
  O        37.9813959929       33.1352747982        5.5715830958
  O        39.2164505414       31.5740281563        6.6648101465
  O        20.3081744637        1.0390986973        6.5020336640
  O        38.0237404208       33.1839052796       10.4160469200
  O        39.2175701113       31.5823184134        9.3281066439
  O        40.6522294955       33.7691914465       10.0600810639
  O        18.2557303642        1.3754687368        7.9967865011
  O        44.6222234736       35.1005037594        6.7587881825
  O        24.2053790230       -0.0000238740        9.3207796424
  O        22.7528576588        2.0574105860       10.5836764421
  O        21.6241788746        3.5956824807        9.3423143669
  O        27.5189460019       18.6779908340        5.4154167872
  O        26.7586577081       16.9290024271        6.6519653708
  O        30.6569373954       19.4055594683        7.9989854117
  O        33.5964411211       16.2720707692        5.6741340767
  O        34.2772207396       18.1664380413        6.7348258090
  O        29.5914775545       17.0136529645        6.5853178906
  O        33.5468578881       16.3351454579       10.4159844440
  O        34.2269201776       18.2486339649        9.4120429811
  O        31.5598619751       18.3114888844       10.2454381862
  O        30.2986842460       15.1072124935        8.1002626733
  O        28.5541124303       21.0285286082        6.7425301301
  O        28.5106343028       20.9562009681        9.3225846253
  O        27.5933002747       18.6200343403       10.6676788522
  O        26.7065439160       16.9382129264        9.4098732916
  O        13.1514488413       18.6927130775       10.5881184287
  O        13.9227855163       16.9171860459        9.4072685781
  O        50.5961156288       19.3500137263        8.0211561905
  O        47.6808762288       16.3274430609       10.4175012907
  O        46.9516465786       18.1760610745        9.3243948957
  O        11.0700909465       17.0152910994        9.4895626725
  O        47.6748125594       16.3362202988        5.6519638849
  O        46.9248973863       18.2356912289        6.6627327283
  O        49.5686049900       18.3176104960        5.9824964217
  O        10.3187727922       15.1002996242        7.9971316934
  O        52.6707396351       21.0278223798        9.2418948587
  O        12.1468366037       20.8909330361        6.6732073976
  O        13.1081438922       18.6134563230        5.3250601410
  O        13.9585454926       16.9873606337        6.6639618697
  O        29.9855458777       14.4333032179       10.7294697587
  O        28.0843891923       14.6523985900        9.4979194717
  O        32.0728830337       16.8670980881        8.0924991522
  O        30.9111700403       20.8692426693       10.4946616100
  O        32.8594467004       20.5980926055        9.3404516693
  O        29.5618694493       17.0772657349        9.5642751512
  O        30.8860119716       20.8148738567        5.5750227080
  O        32.8713005931       20.5834752480        6.6638352196
  O        31.6834214193       18.2418750434        5.9839150085
  O        28.2880528789       18.6768224630        7.9953558532
  O        32.4896524554       14.2128832983        9.3333357715
  O        32.4102777857       14.2075527603        6.8259466376
  O        29.9165984873       14.4298526961        5.4918668779
  O        28.0365022373       14.5847882078        6.7497542440
  O        17.8890646736        1.9663921448       10.6627907482
  O        18.9560959012        3.5270118199        9.4080007946
  O        39.1684569415       34.1383578623        7.9972519070
  O        43.2801547099       33.0588634833       10.3316796666
  O        42.0342492491       31.5064618015        9.2415988862
  O        20.3174417596        1.0364458144        9.4803023944
  O        43.2760742044       33.1824993438        5.5748860947
  O        42.0051857874       31.5840984845        6.5830086852
  O        40.5787792861       33.7745966547        5.9358827996
  O        22.3671815079        1.3843967815        7.9980145078
  O        36.6728516734       35.0996383588        9.2334368383
  O        16.4456288170        0.0639395753        6.6681986119
  O        17.9363977060        2.0431398906        5.3264024511
  O        18.9188835819        3.5930468167        6.6659242301
  O        29.7056589502       18.6089159784        4.0708985622
  O        31.3493523862       16.3304037617        4.1676641552
  O        31.2934226457       16.2695176482       12.0848868952
  O        31.6807603572       16.4749233814        1.5706339179
  O        30.1724044795       15.1766820080       14.4060100123
  O        28.9869793658       18.2378086663       14.4211839687
  O        39.4568172410       35.2436030235        4.0019820101
  O        19.1417245660        0.0044729607       11.9904888025
  O        41.9693980983       35.1725569835        4.0871078126
  O        21.6911943188       -0.0693592936       11.8959378924
  O        51.3649619995       18.6143032915        4.0055267846
  O        10.7515346280       18.7471117014       11.9049514016
  O        50.0792888925       16.4127721185        4.0919332770
  O         9.5244551687       16.4830063078       11.9911886091
 Zr         9.2967693916       16.0526595412        6.1824698256
 Zr        49.8362419511       16.0068463692        9.7464916695
 Zr        22.0733445488        0.0298272371        6.1889790029
 Zr        42.4610775496       35.1535235598        9.8009642092
 Zr        29.6029764057       19.0247737950        6.1779756891
 Zr        29.5880708129       19.1933161353        9.6982510905
 Zr        11.0387389608       19.0515347290        9.8282684107
 Zr        11.0437362619       19.1544799820        6.2516800876
 Zr        31.3184854599       16.0797327857        9.9243981007
 Zr        31.3895607701       15.9799678671        6.2812917361
 Zr        18.6014058604       -0.0016663169        9.7637107484
 Zr        18.5066004225       -0.0081968468        6.2135018099
 Zr        12.3032380241       16.3236608496        7.9910462616
 Zr        48.6158911870       18.8329824888        8.0101993572
 Zr        20.3151635605        2.4734325260        7.9905106038
 Zr        40.6429427813       32.6867788858        7.9781196356
 Zr        28.3504698466       16.3025652649        8.0687732577
 Zr        32.6315269493       18.8081365679        8.0167036340
  H        30.1881680130       18.5058401082        1.6625529408
  H        31.0204316985       17.3678573641       15.0302791408
