     566
 i =      128, E =     -4712.2463769840
  C        11.8587133750       14.0535336622        5.7414765661
  C        12.4561705175       12.8905752883        5.0231971513
  C        11.7044896866       12.1716598429        4.0815145763
  C        12.2808614143       11.1094479252        3.3891799221
  C        13.6214241289       10.7396337619        3.6169486863
  C        14.3545908977       11.4432037008        4.5904112225
  C        13.7817082326       12.5081897641        5.2818991816
  C        14.2609349646        9.6489447859        2.8435728380
  C        14.2562684371        9.6568436064        1.4218743756
  C        13.7431773070       10.7589916413        0.6679542434
  C        49.1266905139       21.2332927623        5.8797285428
  C        48.5498916715       22.4012112834        5.1526869108
  C        49.2998971590       23.0684389862        4.1716018798
  C        48.7329754596       24.1075643215        3.4383841856
  C        47.4024631960       24.5092838192        3.6670416868
  C        46.6715427808       23.8605037500        4.6806463690
  C        47.2339780567       22.8156100619        5.4100268361
  C        46.7722346354       25.5869641395        2.8697437457
  C        46.7612767457       25.5573754073        1.4479786191
  C        47.2612652455       24.4423063272        0.7044846155
  C        14.8601345545        8.5704548371        0.7086284715
  C        14.8916816414        8.5969869690        3.5202347299
  C        49.1130820528       21.2035081635       10.1453063587
  C        48.5277082473       22.3648681222       10.8724136456
  C        49.2669251407       23.0255020705       11.8654028105
  C        48.6906080780       24.0600520072       12.5968661850
  C        47.3602289075       24.4569062422       12.3585731679
  C        46.6398445060       23.8120924711       11.3349686768
  C        47.2133769383       22.7761938565       10.6031646561
  C        46.7217744865       25.5318474083       13.1496270911
  C        46.7335270294       25.5282113927       14.5713341280
  C        47.2489894670       24.4290134650       15.3277217132
  C        40.6192768519       17.0717477385       15.3067011178
  C        40.6278037102       17.0952974960       12.4968030750
  C        11.8829774360       14.0864740648       10.2855195809
  C        12.4722230673       12.9106200653       10.9897184403
  C        11.7147242317       12.1775784916       11.9159638630
  C        12.2812681185       11.0950818140       12.5843495070
  C        13.6200004668       10.7211305865       12.3523460549
  C        14.3578900305       11.4364945187       11.3913211490
  C        13.7925242726       12.5177075932       10.7186471535
  C        14.2535887004        9.6243931578       13.1227939565
  C        14.2523769684        9.6444277106       14.5446373289
  C        13.7426220444       10.7534413822       15.2916980223
  C        22.5124302513        3.2438896709        5.7539034088
  C        23.2292738023        4.3483739536        5.0556466103
  C        24.2272464304        4.0665534975        4.1110752806
  C        24.8566491980        5.1049490015        3.4296110942
  C        24.5035013199        6.4470773295        3.6727769134
  C        23.5338184251        6.7204881697        4.6545765087
  C        22.8998560206        5.6838649003        5.3344971427
  C        25.1098343886        7.5527305572        2.8966731519
  C        25.0789588412        7.5464608074        1.4753118949
  C        24.3754978188        6.5472064978        0.7303615889
  C        38.2978707069       31.9278727878        5.8515330519
  C        37.5557532353       30.8403575049        5.1491662738
  C        36.5898013537       31.1497851619        4.1789617736
  C        35.9574100962       30.1338925712        3.4673321780
  C        36.2753401300       28.7816726523        3.7020930147
  C        37.2111073374       28.4796548127        4.7097033084
  C        37.8473796791       29.4945960432        5.4210293802
  C        35.6617033225       27.6952841619        2.9030851857
  C        35.6984148532       27.7110381457        1.4811449497
  C        36.4108885553       28.7113328647        0.7472290909
  C        25.6988723474        8.6176222304        0.7546567437
  C        25.7087405256        8.6268440103        3.5667950598
  C        38.3292837971       31.9604752304       10.1599226067
  C        37.6098329343       30.8883675243       10.9082234220
  C        36.6752757163       31.1998503414       11.9081173212
  C        36.0617865164       30.1844371489       12.6399413495
  C        36.3674182473       28.8300188506       12.3969756784
  C        37.2828056770       28.5284800747       11.3695680857
  C        37.8980771157       29.5404691712       10.6386147512
  C        35.7494966816       27.7332408118       13.1793439050
  C        35.7428651721       27.7306714081       14.6021573766
  C        36.4306151320       28.7218237964       15.3705104697
  C        46.1354586801       26.6208119707       15.2814765521
  C        46.0877411918       26.5801710940       12.4735880766
  C        22.4598390661        3.2558321593       10.2580040142
  C        23.1514338157        4.3651516176       10.9822606891
  C        24.1539877818        4.0803297836       11.9228950055
  C        24.7795099271        5.1112205419       12.6199202946
  C        24.4224847745        6.4565279482       12.3989641099
  C        23.4428181933        6.7346132115       11.4269350956
  C        22.8127212098        5.7039957893       10.7303529925
  C        25.0519040771        7.5552478330       13.1732758993
  C        25.0493423994        7.5473915598       14.5961378091
  C        24.3595814015        6.5486446596       15.3535676446
  C        26.6052084989       17.8903697186        5.7543882075
  C        25.2965549897       17.9430905483        5.0398221227
  C        25.0424138922       18.9318212205        4.0766078564
  C        23.8268585305       18.9544291445        3.3970429928
  C        22.8330354083       17.9892971073        3.6562878491
  C        23.0827880800       17.0249868008        4.6508039303
  C        24.2986088241       16.9989394784        5.3307936604
  C        21.5629593350       17.9692567985        2.8906438451
  C        21.5665329593       17.9452871012        1.4682863989
  C        22.7742576130       17.8267652392        0.7102222621
  C        34.4416581916       17.1901818581        5.9214737316
  C        35.7356443317       17.1401256718        5.1788557952
  C        35.9471338112       16.1564635839        4.1997495008
  C        37.1255471713       16.1406729672        3.4592193891
  C        38.1268338325       17.1068264439        3.6780440344
  C        37.9193580117       18.0707653366        4.6830424123
  C        36.7372660114       18.0922908230        5.4206522869
  C        39.3789536655       17.1095870221        2.8869289671
  C        39.3695379523       17.1040234457        1.4648935371
  C        38.1593212360       17.2111680264        0.7098455666
  C        20.3208231155       17.9562379264        0.7588119388
  C        20.3380275742       17.9654967803        3.5717630418
  C        34.4376887043       17.2366186002       10.1819522932
  C        35.7384667118       17.1369282568       10.9064120046
  C        35.9459970369       16.1482984196       11.8799111056
  C        37.1362668939       16.1131271064       12.6024843625
  C        38.1478849495       17.0661589789       12.3726294223
  C        37.9462232657       18.0287173662       11.3656088439
  C        36.7556437738       18.0682860810       10.6456389678
  C        39.3980815537       17.0771626792       13.1653381277
  C        39.3794452853       17.0878560465       14.5869415670
  C        38.1639160781       17.2022028674       15.3329640820
  C        35.1025351851       26.6546648284       15.3031488478
  C        35.1649496640       26.6606351905       12.4932659616
  C        26.5624301716       17.8219173355       10.3233481970
  C        25.2507069070       17.8684639126       11.0294567105
  C        24.9690490162       18.9003814350       11.9377616124
  C        23.7518057635       18.9261938212       12.6121633540
  C        22.7865465500       17.9226914567       12.3983314738
  C        23.0610965703       16.9151080954       11.4560252269
  C        24.2797947679       16.8856067862       10.7813890762
  C        21.5221811532       17.9107659805       13.1700324166
  C        21.5453342881       17.9166293029       14.5910781696
  C        22.7640684483       17.8146099646       15.3338656040
  C        14.0451430403       17.8295566383       10.2868891683
  C        15.3494793644       17.8882405105       11.0094404321
  C        15.6072300910       18.8953723259       11.9522369446
  C        16.8165215067       18.9172043233       12.6436175025
  C        17.8004304153       17.9346246000       12.4135403068
  C        17.5477235503       16.9520583311       11.4379829783
  C        16.3379621403       16.9257637147       10.7480096003
  C        19.0679164474       17.9188288714       13.1825671719
  C        19.0642586648       17.9238951861       14.6046275736
  C        17.8560161551       17.8257774123       15.3641470433
  C        46.8020692194       17.2156369811       10.1561842548
  C        45.5076096088       17.1436922344       10.8951526168
  C        45.3012743983       16.1565304933       11.8714049573
  C        44.1167764822       16.1267544346       12.6028551626
  C        43.1074159608       17.0839587761       12.3809870798
  C        43.3101797157       18.0498802537       11.3766262044
  C        44.4956485501       18.0834307202       10.6457712231
  C        41.8542801274       17.0859465440       13.1714947220
  C        41.8639132862       17.0867541819       14.5937754024
  C        43.0749101718       17.1868004439       15.3486369901
  C        20.3097208002       17.9417461153       15.3143014158
  C        20.2922154464       17.8922160413       12.5012938544
  C        46.7854610544       17.2326706411        5.8859904595
  C        45.4847618825       17.1286698719        5.1644127745
  C        45.2674304223       16.1274222677        4.2055371634
  C        44.0809447687       16.0985745119        3.4765812119
  C        43.0816389613       17.0683999740        3.6883795087
  C        43.2905352880       18.0414463404        4.6837487540
  C        44.4778464177       18.0761099405        5.4084677446
  C        41.8335855356       17.0839560921        2.8932924443
  C        41.8535599453       17.0843023327        1.4718439341
  C        43.0701465883       17.1824715570        0.7256491876
  C        46.1532390276       26.6372468250        0.7262355913
  C        46.1622563540       26.6560647668        3.5358827115
  C        14.0432462070       17.8319943608        5.7083802248
  C        15.3614544384       17.9090909247        5.0148798088
  C        15.6279341237       18.9272053114        4.0872980171
  C        16.8542452924       18.9696424473        3.4284783529
  C        17.8407093886       17.9933533809        3.6724877195
  C        17.5808231086       17.0035435591        4.6376262135
  C        16.3563509101       16.9604310614        5.2998512259
  C        19.1070436421       17.9759046255        2.9032923272
  C        19.0847497894       17.9519433727        1.4820947495
  C        17.8661787164       17.8378464926        0.7403737759
  C        28.8035011787       14.0902294202       10.3898679984
  C        28.1867103964       12.9196833276       11.0786459276
  C        28.9097067818       12.1734402419       12.0211383871
  C        28.3078703855       11.1009388413       12.6741712487
  C        26.9689441339       10.7497414290       12.4080306082
  C        26.2673771177       11.4757751214       11.4288711783
  C        26.8667678895       12.5492668141       10.7749630343
  C        26.3005600030        9.6698088580       13.1694226425
  C        26.2935963466        9.6942910044       14.5905080916
  C        26.7988671812       10.8065452911       15.3358880514
  C        32.1811962946       21.2343684137       10.1443981391
  C        32.7726900706       22.3997194843       10.8663884313
  C        32.0185049883       23.0787596660       11.8363538177
  C        32.5829618762       24.1221731950       12.5640545945
  C        33.9178951964       24.5151087960       12.3455108157
  C        34.6545181248       23.8540839543       11.3439150837
  C        34.0924377310       22.8059602383       10.6168283181
  C        34.5401958347       25.5934952891       13.1489755315
  C        34.5161727676       25.5700706232       14.5712984911
  C        33.9985834979       24.4580679190       15.3078712589
  C        25.6877832151        8.6147373174       15.3098948530
  C        25.6629212149        8.6195795726       12.4964662144
  C        32.0760516515       21.1992673470        5.8720436681
  C        32.6408788594       22.3665440960        5.1336435126
  C        31.9071754778       23.0089945125        4.1242008213
  C        32.4765045064       24.0522666822        3.3959139262
  C        33.7936546519       24.4817959357        3.6545724498
  C        34.5075102617       23.8527394893        4.6933128025
  C        33.9434275600       22.8073321295        5.4187119616
  C        34.4335558385       25.5666581980        2.8729311456
  C        34.4607639418       25.5566938360        1.4502290160
  C        33.9710912783       24.4520523588        0.6845481548
  C        40.6137615005       17.0752893713        0.7519359460
  C        40.6046936564       17.1158328363        3.5622082637
  C        28.7426984753       14.0729821153        5.8123260353
  C        28.1352638053       12.9241318361        5.0779990254
  C        28.8705459100       12.2289576585        4.1057379057
  C        28.2909184902       11.1710408421        3.4097716989
  C        26.9598797497       10.7814040520        3.6608674562
  C        26.2419166412       11.4636616193        4.6608438866
  C        26.8197770537       12.5224573878        5.3583953236
  C        26.3182240952        9.6904290492        2.8887865934
  C        26.3042440904        9.7048056300        1.4669231055
  C        26.8018867156       10.8130880344        0.7119590908
  C        18.1353091543        3.1808271869       10.3170935388
  C        17.4059391021        4.2780515614       11.0157082934
  C        16.3903075140        3.9996398903       11.9433045742
  C        15.7425302716        5.0395859214       12.6068053834
  C        16.0943126932        6.3833293500       12.3670839986
  C        17.0835905208        6.6528977516       11.4032254410
  C        17.7327270634        5.6155961919       10.7381595536
  C        15.4699737673        7.4910240160       13.1301289409
  C        15.4852628371        7.4903649474       14.5518470002
  C        16.1867898529        6.4967390798       15.3050315704
  C        42.9457342897       31.8594946158       10.0728284485
  C        43.6460801465       30.7718072675       10.8167885313
  C        44.5915768455       31.0931483204       11.8028848645
  C        45.1972866662       30.0876063861       12.5505501364
  C        44.8708805300       28.7345398432       12.3356761539
  C        43.9450506930       28.4201885968       11.3224695218
  C        43.3362253247       29.4253258399       10.5744215358
  C        45.4884961382       27.6552641279       13.1388723254
  C        45.4926905488       27.6809093629       14.5605658090
  C        44.8055630090       28.6889260728       15.3071941070
  C        14.8563576328        8.5629059543       15.2641952609
  C        14.8747061363        8.5627910625       12.4515191943
  C        42.9463884008       31.9615405493        5.8090012957
  C        43.6916075555       30.8854117411        5.0955278116
  C        44.6562664861       31.1913355612        4.1232912788
  C        45.2777630361       30.1717528008        3.4055431970
  C        44.9538752409       28.8214460932        3.6430843392
  C        44.0202722339       28.5237671450        4.6537431343
  C        43.3920231639       29.5405228419        5.3659450663
  C        45.5629431979       27.7240547632        2.8578399131
  C        45.5332313516       27.7173728533        1.4365413654
  C        44.8268550597       28.7075648709        0.6835896313
  C        35.0770199702       26.6463881530        0.7489440023
  C        35.0460810039       26.6233136496        3.5595264733
  C        18.1485091576        3.2469398235        5.7066956075
  C        17.4299234211        4.3437881721        4.9973955942
  C        16.4146892021        4.0525029200        4.0738617910
  C        15.7663328512        5.0831049646        3.3984637994
  C        16.1209986300        6.4283498365        3.6211302928
  C        17.1124193777        6.7117652006        4.5783376409
  C        17.7601130560        5.6828654107        5.2581172098
  C        15.4904811068        7.5240273519        2.8486693528
  C        15.4963394227        7.5073553022        1.4275347424
  C        16.1930255530        6.5055943753        0.6808463192
  H        10.6723624818       12.4657910988        3.9045002529
  H        11.6945816147       10.5509523256        2.6626475780
  H        15.3916298768       11.1686338781        4.7721230544
  H        14.3511808412       13.0714449159        6.0172972367
  H        13.3762677403       11.6311646242        1.2012550745
  H        50.3225874740       22.7483661357        3.9868317825
  H        49.3194584784       24.6227877280        2.6807759833
  H        45.6420914962       24.1613792278        4.8638855441
  H        46.6629937286       22.2904813714        6.1722212876
  H        47.6298236333       23.5759276085        1.2461542691
  H        14.8720481878        8.5882636498        4.6085402778
  H        50.2869388526       22.7025909456       12.0603602764
  H        49.2690012019       24.5754643743       13.3603962955
  H        45.6104769706       24.1094175127       11.1458392064
  H        46.6525630581       22.2541118977        9.8315439729
  H        47.6078137505       23.5519074110       14.7968334568
  H        40.6306561140       17.0648701279       11.4088632396
  H        48.6871823370       14.0950441850        7.8000987822
  H        10.6813190601       12.4668100874       12.0934847315
  H        11.6894985341       10.5247956101       13.2971503659
  H        15.3932500722       11.1584438137       11.2052375546
  H        14.3648268258       13.0869326173        9.9899751719
  H        13.3758905501       11.6220869106       14.7530481326
  H        47.9301459651       14.2187085262        9.7107446361
  H        47.7799762756       14.3738583191        6.4955102357
  H        49.0826342334       18.5519639199       10.8670702594
  H        10.4160847610       14.1343462121        7.9987524618
  H        24.4870484096        3.0275028363        3.9212461459
  H        25.6305310757        4.8864403778        2.6969528585
  H        23.2539890881        7.7539219954        4.8482579159
  H        22.1288317956        5.8852410701        6.0741689429
  H        23.8168810384        5.7892147712        1.2716673720
  H        36.3592235223       32.1944875006        3.9841897401
  H        35.2091117032       30.3793413647        2.7168909415
  H        37.4650602994       27.4388219624        4.8996886345
  H        38.5949308731       29.2671638056        6.1774207428
  H        36.9737847980       29.4606295377        1.2961336298
  H        25.7460150979        8.6089265414        4.6545172782
  H        36.4487258311       32.2445962479       12.1087088314
  H        35.3306434756       30.4338215339       13.4057896371
  H        37.5331589960       27.4877564940       11.1745719226
  H        38.6251937017       29.3102770085        9.8636158522
  H        37.0094591007       29.4788796220       14.8492281890
  H        46.1091289778       26.5875805126       11.3855516798
  H        44.6682087015       35.1161273453        7.8139333863
  H        24.4338911241        3.0425286970       12.0891324123
  H        25.5609292373        4.8834157255       13.3417557602
  H        23.1554655217        7.7686359252       11.2474275721
  H        22.0405928519        5.9157472172        9.9943115845
  H        23.7882385440        5.7923021301       14.8232504698
  H        44.9535997838       34.3902733913        9.6951570785
  H        44.9015913770       34.2066746905        6.4906903885
  H        40.6657765402       33.2087619559       10.8530298014
  H        23.1503627549        1.9576764292        8.0055846841
  H        25.8079253693       19.6769600874        3.8732660293
  H        23.6334804654       19.7269454864        2.6559569578
  H        22.3258053182       16.2715878956        4.8588250270
  H        24.5044625904       16.2408003907        6.0826684121
  H        23.7158692525       17.7143678486        1.2398880946
  H        35.1707189468       15.4145457427        4.0292950913
  H        37.2875642136       15.3702871992        2.7084210847
  H        38.6840912700       18.8250810198        4.8566587723
  H        36.5614048551       18.8514533185        6.1793946292
  H        37.2212264129       17.3346566336        1.2434208535
  H        20.3433826011       18.0066156267        4.6595484708
  H        35.1567421551       15.4241485497       12.0681459220
  H        37.2949481037       15.3429126311       13.3541346907
  H        38.7200125965       18.7713004382       11.1821761769
  H        36.5805553712       18.8294519761        9.8891590060
  H        37.2290304031       17.3179707355       14.7921897370
  H        35.1498174885       26.6831873791       11.4052159963
  H        28.5050946170       21.0809113124        7.8760531795
  H        25.7130600082       19.6777326077       12.0960757510
  H        23.5334031298       19.7283510162       13.3138404071
  H        22.3226752176       16.1342102325       11.2862360362
  H        24.5084103888       16.0970418967       10.0683757799
  H        23.6976781255       17.6942180748       14.7923077842
  H        28.9769666222       21.7285663774        9.7655712911
  H        29.1850148169       21.7177030991        6.5539557247
  H        32.1277578322       18.5615348347       10.9579866783
  H        27.3980787052       19.0672999452        8.0722135593
  H        14.8494464335       19.6556822433       12.1275976821
  H        17.0144739901       19.7035997798       13.3687903888
  H        18.2980582188       16.1862182118       11.2525106666
  H        16.1294233669       16.1544501248       10.0104709969
  H        16.9146249533       17.7065333802       14.8357820340
  H        46.0868211486       15.4263574594       12.0512201536
  H        43.9592547151       15.3540588915       13.3521842385
  H        42.5394448497       18.7972607671       11.1997928986
  H        44.6674694490       18.8441294521        9.8877508362
  H        44.0148456218       17.2995255297       14.8159631736
  H        20.2873905539       17.9117238223       11.4129411566
  H        46.0436203246       15.3851378344        4.0338309821
  H        43.9152986806       15.3201109331        2.7349854923
  H        42.5248820927       18.7955533200        4.8537347056
  H        44.6590521838       18.8455800020        6.1549311867
  H        44.0065419156       17.2909530401        1.2652872511
  H        46.1990666105       26.6826229038        4.6233293606
  H        52.7411812636       21.0626725152        8.1946091823
  H        14.8641792369       19.6787091574        3.9000075993
  H        17.0612861750       19.7619437554        2.7123194512
  H        18.3348946862       16.2437459977        4.8324530422
  H        16.1393880255       16.1839781713        6.0294094181
  H        16.9323698620       17.7279065997        1.2835724398
  H        52.3226408636       21.6735691643        6.2944922638
  H        52.0136536042       21.7025209612        9.4956262179
  H        49.0675138905       18.6079515024        5.2039940249
  H        13.2471685013       19.0164782268        7.9769540228
  H        29.9422470474       12.4469260451       12.2262168832
  H        28.8699399640       10.5214109344       13.4033277770
  H        25.2329258335       11.2140972924       11.2158721805
  H        26.3229674604       13.1308090808       10.0345633939
  H        27.1582967174       11.6768514891       14.7952914279
  H        30.9937199231       22.7627410020       12.0162526612
  H        31.9915836250       24.6467598268       13.3113232096
  H        35.6877713665       24.1465896321       11.1683768079
  H        34.6680908204       22.2722941100        9.8639904173
  H        33.6479934590       23.5873116279       14.7613161794
  H        25.6892289211        8.6018088346       11.4083416673
  H        30.8962120928       22.6684493150        3.9114108802
  H        31.8991222472       24.5494723684        2.6195227067
  H        35.5269879640       24.1710479408        4.9010574304
  H        34.5030626271       22.3014931223        6.2018690724
  H        33.5992504540       23.5763453864        1.2088780708
  H        40.6013496178       17.0913987696        4.6502760358
  H        32.5061751785       14.1423430334        8.2434785224
  H        29.8974323373       12.5307890728        3.9134114550
  H        28.8687500019       10.6284480408        2.6647192056
  H        25.2119308317       11.1758904269        4.8613720509
  H        26.2611958895       13.0653795070        6.1170616139
  H        27.1617111895       11.6888437440        1.2442922867
  H        33.3101829432       14.2368146749        6.4682514232
  H        33.4053282926       14.4118661921        9.5958119462
  H        32.1198215960       18.4582057004        5.0951855827
  H        30.1880041083       14.1550442525        8.0709010641
  H        16.1183332001        2.9631215297       12.1297476989
  H        14.9531330577        4.8201421827       13.3225031246
  H        17.3659155215        7.6857908093       11.2100610973
  H        18.5146444417        5.8182827211       10.0101980626
  H        16.7532940385        5.7393498505       14.7715472346
  H        44.8278468227       32.1402348484       11.9770643822
  H        45.9371477541       30.3413625334       13.3064991493
  H        43.6823529988       27.3781184023       11.1523555840
  H        42.5996377576       29.1899716001        9.8097269823
  H        44.2301486453       29.4366482008       14.7688888370
  H        14.8509118822        8.5459842657       11.3633006126
  H        44.8998802099       32.2340131154        3.9319297494
  H        46.0247299923       30.4129681883        2.6523624243
  H        43.7631787136       27.4840496262        4.8451956050
  H        42.6454016286       29.3177297149        6.1242716192
  H        44.2683036118       29.4704180757        1.2181798487
  H        34.9992534266       26.6357302325        4.6468580270
  H        36.6051402524       35.1339547448        8.1806965545
  H        16.1435982411        3.0129181358        3.9041773175
  H        14.9739490526        4.8562234385        2.6884547074
  H        17.3959235228        7.7472422118        4.7551821962
  H        18.5430217471        5.8933536337        5.9828368342
  H        16.7644210078        5.7553334164        1.2192934134
  H        36.2785048805       34.4823596226        6.2732693870
  H        36.3806010145       34.2091332975        9.4996902024
  H        40.5787674002       33.2013871449        5.1541509684
  H        17.4708457361        1.9467885002        7.9740667227
  H        28.6402555037       18.8866259306       12.1566268813
  H        28.9101338615       18.9677364631        3.5745795542
  H        31.6101899759       15.6279168506        3.5410039124
  H        31.3288460432       15.4954713460       12.4704446873
  H        29.2714446822       15.4936848425       14.2741816506
  H        32.4858424235       17.0498173583        1.3622623951
  H        18.8534176657        0.8689488285       12.3352254295
  H        40.5280107040       35.2291780028        3.9521567584
  H        42.3234033929       34.4183892643        3.5908691058
  H        22.0877766770        0.6922383966       12.3513133887
  H        11.5968491900       18.7128575894       12.3824371652
  H        52.2643047430       18.4312463281        3.6771994891
  H        49.2549241184       16.4766281967        3.5844794557
  H        10.1505187536       15.7983657205       12.2926686017
  H        50.8495920188       17.6924155615        3.9541287485
  H        10.0461681939       17.3948078567       12.0519319051
  H        20.2147445081        0.0022419155       12.0420043955
  H        39.1836267013       36.1245589102        3.6865316045
 Ni        30.5665410933       17.5474008715        2.6703509497
 Ni        30.7758783085       16.5448424004       -0.1693936331
 Ni        29.6367515546       18.3761826633        0.6670540739
 Ni        30.0573025014       17.3043083520       12.9929329097
  O        10.6498906140       14.3651185973        5.4858294308
  O        12.6131216838       14.6574603607        6.5838702552
  O        49.1477191179       16.8459708643        7.9898212328
  O        50.3501526760       20.9360693151        5.6481304807
  O        48.3484718506       20.5933132619        6.6659683427
  O        11.0513162005       17.0539644611        6.5006305277
  O        50.3208157072       20.8816593223       10.4068765743
  O        48.3466739174       20.5866838094        9.3271223025
  O        49.5435334684       18.2484094234       10.0683044788
  O        12.3587598934       18.6246174778        7.9996803825
  O        48.6931962045       14.1485816545        6.7513257625
  O         8.2098925212       14.2104202221        9.3225309463
  O        10.7353651080       14.5067659397       10.6643269034
  O        12.5717770447       14.5827552048        9.3285127559
  O        22.8444918592        2.0427579736        5.4873182300
  O        21.6054769347        3.5921630717        6.5896517087
  O        42.0578556068       34.1370734151        7.9789563116
  O        37.9813460369       33.1368219149        5.5724784945
  O        39.2170254913       31.5749255500        6.6655543771
  O        20.3082804472        1.0392230029        6.5020156940
  O        38.0242788724       33.1848949947       10.4156855004
  O        39.2180978563       31.5827577190        9.3277398900
  O        40.6521508686       33.7691222743       10.0601673003
  O        18.2556320129        1.3757530059        7.9968292071
  O        44.6222213829       35.1004958377        6.7587501894
  O        24.2053633696        0.0000326013        9.3208191984
  O        22.7529385133        2.0579598370       10.5838941558
  O        21.6242261987        3.5959178296        9.3423574286
  O        27.5004531608       18.7522918390        5.4244764752
  O        26.7344020650       16.9960132788        6.6581059009
  O        30.6437044887       19.3490650185        8.0073642953
  O        33.5898405085       16.2719377135        5.6709856279
  O        34.2723099573       18.1670691061        6.7350257232
  O        29.5725072396       17.0506278105        6.5764265170
  O        33.5538502831       16.3373827165       10.4093542839
  O        34.2957222981       18.2398640502        9.4032915996
  O        31.6440333467       18.3148566550       10.1527034016
  O        30.2955312455       15.1195681681        8.0799398694
  O        28.5519905730       21.0293784568        6.8291176283
  O        28.5141916240       20.9540274846        9.4038664186
  O        27.4531145950       18.6779470598       10.6562330112
  O        26.6919863293       16.9294346462        9.4126047583
  O        13.1474649200       18.6932826900       10.5867539626
  O        13.9182977752       16.9160002035        9.4041844719
  O        50.5958115036       19.3502193891        8.0204858342
  O        47.6827877903       16.3270353884       10.4171993796
  O        46.9502764444       18.1755970197        9.3255010797
  O        11.0693713975       17.0157198965        9.4896069982
  O        47.6757307634       16.3358828520        5.6528750908
  O        46.9257832158       18.2358622494        6.6636310357
  O        49.5684190746       18.3176896324        5.9822822562
  O        10.3187228122       15.1001906877        7.9970465478
  O        52.6707234559       21.0279141850        9.2417987286
  O        12.1467874431       20.8912931838        6.6733235189
  O        13.1059411267       18.6141333762        5.3259017844
  O        13.9565518405       16.9871971048        6.6650056091
  O        29.9891938142       14.4383817986       10.7276324029
  O        28.0854789093       14.6553705823        9.4942446443
  O        32.0779059987       16.8603714098        8.0576556695
  O        30.9643729233       20.9441740599       10.4077570589
  O        32.9442937967       20.5984750761        9.3329303227
  O        29.5598536826       17.0743344119        9.5692164506
  O        30.8504153105       20.8813027946        5.6519132065
  O        32.8683252273       20.5856854999        6.6630635263
  O        31.6754263811       18.2479288281        5.9328293370
  O        28.2875551744       18.6772193444        8.0619768961
  O        32.4907967036       14.2109694962        9.3240959301
  O        32.4046719560       14.2163890264        6.8215314403
  O        29.9186187135       14.4418410867        5.4852908999
  O        28.0345556789       14.5965834007        6.7454081859
  O        17.8891899241        1.9665210966       10.6628353726
  O        18.9562016215        3.5270496465        9.4079870994
  O        39.1685507897       34.1385248976        7.9971422606
  O        43.2801600626       33.0589204560       10.3316473299
  O        42.0343339234       31.5064700957        9.2415925413
  O        20.3174882618        1.0365263768        9.4802798860
  O        43.2760434308       33.1825339378        5.5749155748
  O        42.0052263468       31.5841115835        6.5830280418
  O        40.5788739019       33.7747310176        5.9358000368
  O        22.3671929728        1.3845468523        7.9979865384
  O        36.6727648804       35.0996887717        9.2333371860
  O        16.4455722464        0.0641899710        6.6682778228
  O        17.9365195125        2.0433915109        5.3263215435
  O        18.9190586920        3.5931474299        6.6659582268
  O        29.7441906245       18.6832615888        3.9909692722
  O        29.6191752723       18.8976002455       12.0658343880
  O        31.3768699892       16.4115110701        4.0704776364
  O        31.3395750217       16.3511379101       11.9982705210
  O        31.6372493864       16.5702698790        1.4221436882
  O        30.1559507679       15.9056466255       14.2397711943
  O        39.4568034476       35.2439036800        4.0019740801
  O        19.1414315835        0.0045089025       11.9905244083
  O        41.9696417635       35.1727786432        4.0871751329
  O        21.6913665432       -0.0692975771       11.8958647751
  O        51.3644633811       18.6143053601        4.0052758087
  O        10.7510107687       18.7471912510       11.9049749505
  O        50.0793863997       16.4127289790        4.0917325953
  O         9.5245662753       16.4831659327       11.9911962925
 Zr         9.2969330539       16.0527764156        6.1824048221
 Zr        49.8365896373       16.0068618593        9.7465621731
 Zr        22.0731634364        0.0295703782        6.1890283659
 Zr        42.4607730407       35.1532646111        9.8008106199
 Zr        29.5952260896       19.0564226200        6.2082837733
 Zr        29.5880077745       19.1900594912        9.8279972831
 Zr        11.0377236169       19.0522294349        9.8277131675
 Zr        11.0436979897       19.1550109589        6.2509721730
 Zr        31.3304996739       16.0880597280        9.8347626123
 Zr        31.3783448336       16.0089214989        6.2500694036
 Zr        18.6009336181       -0.0019221860        9.7635108616
 Zr        18.5064007807       -0.0080997784        6.2135098017
 Zr        12.3017973477       16.3234916429        7.9901731961
 Zr        48.6162449757       18.8330536135        8.0103588892
 Zr        20.3149134893        2.4730976825        7.9904577580
 Zr        40.6427300541       32.6865021717        7.9780924716
 Zr        28.3355040393       16.3411734820        8.0740153805
 Zr        32.6192906963       18.8346963943        8.0316854443
  H        29.1649441031       17.4677487732        1.7736564875
  H        28.8933771563       19.5215083040        1.2186178871
