     574
 i =      150, E =     -4778.8356671568
  C        11.8585120054       14.0535087044        5.7415814320
  C        12.4559776200       12.8904245284        5.0232849484
  C        11.7044664050       12.1719171733        4.0811861944
  C        12.2808093543       11.1096817268        3.3888233815
  C        13.6211946449       10.7394657733        3.6169565598
  C        14.3541442666       11.4425863489        4.5909209598
  C        13.7812703226       12.5075551229        5.2824530138
  C        14.2607815164        9.6488273133        2.8435692464
  C        14.2561892987        9.6567715593        1.4218593490
  C        13.7430963990       10.7589100724        0.6679198555
  C        49.1265024504       21.2333725028        5.8798306816
  C        48.5496115804       22.4011176449        5.1526334465
  C        49.2997710827       23.0687277525        4.1719235061
  C        48.7328116303       24.1078099800        3.4386884455
  C        47.4021269956       24.5091256874        3.6670340201
  C        46.6709743515       23.8598984549        4.6801679640
  C        47.2334661612       22.8150355043        5.4095556264
  C        46.7719665427       25.5868637487        2.8697508163
  C        46.7611358266       25.5573543535        1.4479885493
  C        47.2610759757       24.4422569415        0.7045099494
  C        14.8601441358        8.5704307455        0.7086008457
  C        14.8914387502        8.5967892906        3.5202077113
  C        49.1128911452       21.2034655710       10.1453989885
  C        48.5274341628       22.3647101387       10.8725690019
  C        49.2668140170       23.0258355434       11.8651044772
  C        48.6904131323       24.0603304186       12.5965731528
  C        47.3597994033       24.4566422303       12.3586825606
  C        46.6391624401       23.8112569920       11.3356309928
  C        47.2127916554       22.7753898390       10.6038461799
  C        46.7213958834       25.5316596008       13.1496816430
  C        46.7333193425       25.5281470461       14.5713783364
  C        47.2487935405       24.4289470155       15.3277496130
  C        40.6161171277       17.1157285992       15.3106628826
  C        40.6256154376       17.1067427962       12.5012949583
  C        11.8826530476       14.0864474585       10.2854879227
  C        12.4718371422       12.9104021914       10.9896043022
  C        11.7143930055       12.1775084019       11.9160009907
  C        12.2808673656       11.0949749734       12.5844189613
  C        13.6195350429       10.7208934964       12.3523126480
  C        14.3573867679       11.4360532688       11.3911096553
  C        13.7920523724       12.5172889088       10.7184438172
  C        14.2531739879        9.6241773205       13.1227528936
  C        14.2522053269        9.6443082410       14.5445976061
  C        13.7424343705       10.7533088049       15.2916635699
  C        22.5095236694        3.2445324077        5.7510150543
  C        23.2185766731        4.3508327837        5.0464893473
  C        24.2135546113        4.0723647751        4.0978195824
  C        24.8363108913        5.1127917298        3.4130675538
  C        24.4797505514        6.4541371720        3.6565085842
  C        23.5118055379        6.7241690688        4.6410603297
  C        22.8846086187        5.6855317965        5.3243578804
  C        25.0862300579        7.5610106969        2.8815789772
  C        25.0666926049        7.5528913111        1.4598444728
  C        24.3653163403        6.5549170152        0.7112961461
  C        38.2981117228       31.9280778176        5.8521983311
  C        37.5570976041       30.8393703812        5.1513826764
  C        36.5921673333       31.1458008028        4.1793348580
  C        35.9631263268       30.1274509104        3.4683293044
  C        36.2836291857       28.7764083749        3.7061487533
  C        37.2174464625       28.4774485721        4.7163065701
  C        37.8504980089       29.4947227385        5.4267280546
  C        35.6760439181       27.6876009926        2.9064970608
  C        35.7186349147       27.7020177697        1.4849218345
  C        36.4315715508       28.7033837435        0.7527501849
  C        25.6982630706        8.6194402308        0.7420274961
  C        25.6805472328        8.6364311728        3.5541050126
  C        38.3308645684       31.9610236232       10.1604319197
  C        37.6152725685       30.8883683476       10.9103669960
  C        36.6839476574       31.1981665807       11.9136026618
  C        36.0754760543       30.1812748790       12.6473466773
  C        36.3832138184       28.8278524161       12.4021545614
  C        37.2953428461       28.5279691481       11.3715256660
  C        37.9057126777       29.5413427885       10.6389318144
  C        35.7695940448       27.7291804997       13.1842239104
  C        35.7663245355       27.7234549748       14.6067346486
  C        36.4530053511       28.7145357179       15.3761418294
  C        46.1353945424       26.6208312399       15.2814998586
  C        46.0873083990       26.5799141503       12.4736063252
  C        22.4623653879        3.2559832106       10.2563290762
  C        23.1603627876        4.3649008576       10.9758940581
  C        24.1662517525        4.0785583527       11.9125424767
  C        24.7979053449        5.1086195199       12.6054067076
  C        24.4438744146        6.4545939439       12.3841941053
  C        23.4612385748        6.7343490383       11.4158255814
  C        22.8249954112        5.7044582945       10.7233760187
  C        25.0765393281        7.5518592101       13.1586162864
  C        25.0625461292        7.5474906661       14.5811585975
  C        24.3611179830        6.5538107630       15.3345270387
  C        26.5621093487       17.8186998748        5.7950362900
  C        25.2622264101       17.8719193371        5.0638940829
  C        25.0033098601       18.8871229715        4.1298316374
  C        23.7965657015       18.9112056124        3.4345863783
  C        22.8146149746       17.9249967428        3.6552787696
  C        23.0682136445       16.9330255643        4.6209047700
  C        24.2771853253       16.9029507663        5.3129195741
  C        21.5479639387       17.9185394580        2.8842626133
  C        21.5569132474       17.9148322768        1.4625696649
  C        22.7673023845       17.8022831582        0.7082941624
  C        34.4380188144       17.2014357190        5.9235093248
  C        35.7314131450       17.1530070255        5.1817740562
  C        35.9267461065       16.1993494361        4.1700320251
  C        37.1049335313       16.1914208007        3.4287987511
  C        38.1212314284       17.1345528274        3.6798332935
  C        37.9283570031       18.0668713414        4.7172947426
  C        36.7466219096       18.0818626092        5.4548647248
  C        39.3737470655       17.1453238016        2.8900440264
  C        39.3655186550       17.1597222126        1.4679295281
  C        38.1582214845       17.2975887217        0.7129191308
  C        20.3141116020       17.9389780452        0.7489173346
  C        20.3218327987       17.9125353720        3.5618545805
  C        34.4360074621       17.2417699769       10.1949244065
  C        35.7338690395       17.1414015904       10.9180821315
  C        35.9182977867       16.1973953736       11.9390796690
  C        37.1110274052       16.1684178261       12.6573358852
  C        38.1449402157       17.0840292298       12.3787885331
  C        37.9636571616       18.0010739723       11.3260059515
  C        36.7722507557       18.0343035048       10.6087437191
  C        39.3950551632       17.1058301008       13.1696205987
  C        39.3764387621       17.1409631235       14.5911153036
  C        38.1633001311       17.2880394428       15.3359320636
  C        35.1291595191       26.6448009864       15.3062051293
  C        35.1837100670       26.6583445499       12.4967535286
  C        26.5723666477       17.8284607137       10.3233045945
  C        25.2574758254       17.8789784640       11.0271238590
  C        24.9969314015       18.8875945431       11.9669841111
  C        23.7789176412       18.9193954286       12.6397808045
  C        22.7933540884       17.9425291829       12.3950759122
  C        23.0485167625       16.9588005520       11.4227136157
  C        24.2672333945       16.9249472677       10.7481940840
  C        21.5281895036       17.9296157388       13.1641865074
  C        21.5462206148       17.9191174610       14.5853781699
  C        22.7617731916       17.8037943936       15.3319618451
  C        14.0460548155       17.8322371126       10.2840274694
  C        15.3533779777       17.8976526023       11.0009689450
  C        15.6123657986       18.9113413883       11.9362751051
  C        16.8233991097       18.9389337495       12.6244419283
  C        17.8070509955       17.9554583994       12.3983025248
  C        17.5540398484       16.9672787996       11.4287195232
  C        16.3425205091       16.9353991456       10.7419146191
  C        19.0734292858       17.9401969424       13.1693530941
  C        19.0649282176       17.9337546061       14.5911109212
  C        17.8535453996       17.8336756446       15.3452617465
  C        46.8010399899       17.2162976094       10.1573830694
  C        45.5068948787       17.1466163254       10.8973574651
  C        45.3022510399       16.1673061050       11.8820980323
  C        44.1177428857       16.1411873174       12.6141159614
  C        43.1056380101       17.0939450580       12.3846552568
  C        43.3066855475       18.0512055986       11.3714048940
  C        44.4921810286       18.0815562722       10.6403882172
  C        41.8522444477       17.1031786054       13.1756247256
  C        41.8612239771       17.1164396560       14.5980765556
  C        43.0720141098       17.2136257120       15.3533830665
  C        20.3082026061       17.9408134374       15.3045725506
  C        20.2995152441       17.9200307506       12.4920957590
  C        46.7846131222       17.2327850896        5.8860500983
  C        45.4828144028       17.1310042521        5.1664014106
  C        45.2638926167       16.1364422800        4.2008606748
  C        44.0762043096       16.1127912496        3.4734367847
  C        43.0768067707       17.0810036038        3.6930203497
  C        43.2868617394       18.0459923805        4.6960992827
  C        44.4752935950       18.0758042033        5.4190352552
  C        41.8288356041       17.1058770327        2.8977092993
  C        41.8494683596       17.1164685954        1.4761791640
  C        43.0666233222       17.2103991134        0.7304982440
  C        46.1531896553       26.6372746732        0.7262489587
  C        46.1619860878       26.6559441974        3.5358960350
  C        14.0397063443       17.8272895855        5.7058791008
  C        15.3538234593       17.8933983344        5.0049121605
  C        15.6265118044       18.9146473884        4.0829952739
  C        16.8509066499       18.9488039659        3.4206059012
  C        17.8271678807       17.9605268283        3.6558691168
  C        17.5600260167       16.9649927758        4.6126606683
  C        16.3378900590       16.9306509513        5.2789322995
  C        19.0937871661       17.9398479985        2.8890076526
  C        19.0757663367       17.9320410344        1.4678778367
  C        17.8587982854       17.8324965328        0.7215382542
  C        28.8110142409       14.0865967556       10.3640173523
  C        28.2087858257       12.9127459229       11.0578566962
  C        28.9387096682       12.1715747718       11.9987606133
  C        28.3425505896       11.0980776248       12.6566514483
  C        27.0039902196       10.7410992278       12.3962761110
  C        26.2960002448       11.4629156607       11.4183661482
  C        26.8886692578       12.5371658128       10.7603669362
  C        26.3358904918        9.6608753777       13.1590317520
  C        26.3200879698        9.6870296278       14.5800548704
  C        26.8301897530       10.7960513234       15.3270998992
  C        32.1789392541       21.2451084460       10.1497126776
  C        32.7741851366       22.4109021249       10.8671150869
  C        32.0253524896       23.0924747345       11.8389093914
  C        32.5968990119       24.1307904099       12.5679127147
  C        33.9336012537       24.5157448121       12.3472033520
  C        34.6650430224       23.8532781733       11.3433484528
  C        34.0957847363       22.8094749242       10.6160249165
  C        34.5622866017       25.5890196376       13.1515034050
  C        34.5440854475       25.5604370578       14.5734391918
  C        34.0310430100       24.4446837250       15.3078283863
  C        25.7010351675        8.6130436280       15.2972162025
  C        25.6976657393        8.6116911290       12.4842225453
  C        32.0823439745       21.2058822365        5.8835126430
  C        32.6522810071       22.3687149378        5.1419074503
  C        31.9172132817       23.0160851617        4.1363565684
  C        32.4918927895       24.0518802676        3.4014764834
  C        33.8136528059       24.4711280306        3.6535999659
  C        34.5290840573       23.8367908088        4.6876698911
  C        33.9610849061       22.7962437738        5.4170000346
  C        34.4548409509       25.5557255912        2.8730556640
  C        34.4869695323       25.5443403246        1.4509654827
  C        34.0025200033       24.4378325735        0.6845443532
  C        40.6099825215       17.1207905189        0.7557692033
  C        40.5995475464       17.1353906855        3.5659932029
  C        28.7319467512       14.0621581095        5.8204540256
  C        28.1222925231       12.9182235540        5.0813495559
  C        28.8664360055       12.2028458157        4.1300458452
  C        28.2833733856       11.1507751801        3.4277876555
  C        26.9413193788       10.7846800592        3.6542258268
  C        26.2145221963       11.4853377061        4.6351023665
  C        26.7948710891       12.5397652331        5.3374307085
  C        26.3005454393        9.6953767532        2.8785131864
  C        26.3035837498        9.7048636256        1.4567068366
  C        26.8204874852       10.8053192910        0.7031759939
  C        18.1353098719        3.1808068482       10.3171329812
  C        17.4058298782        4.2780132455       11.0156725658
  C        16.3903028273        3.9995267343       11.9433585530
  C        15.7424605677        5.0394314085       12.6068685607
  C        16.0940558351        6.3832047353       12.3670305311
  C        17.0831682005        6.6528378505       11.4030138499
  C        17.7323793084        5.6155768195       10.7379528960
  C        15.4696913621        7.4908664351       13.1300903216
  C        15.4851969852        7.4903116381       14.5518024686
  C        16.1868139307        6.4967411001       15.3049763624
  C        42.9457975376       31.8594294702       10.0728754215
  C        43.6460653786       30.7717840338       10.8167895514
  C        44.5917519872       31.0930436844       11.8027469960
  C        45.1973669657       30.0874554976       12.5504025450
  C        44.8706946759       28.7344180462       12.3356908912
  C        43.9446792162       28.4201378920       11.3226294419
  C        43.3359651208       29.4253175560       10.5745662557
  C        45.4882781646       27.6551329853       13.1388868235
  C        45.4926541686       27.6809255297       14.5605716852
  C        44.8056712943       28.6890435403       15.3071912141
  C        14.8562595493        8.5628268927       15.2641611628
  C        14.8742702581        8.5625540612       12.4514928905
  C        42.9464105166       31.9615178989        5.8089318788
  C        43.6915794096       30.8854500875        5.0954924559
  C        44.6563181808       31.1913388920        4.1233066357
  C        45.2777897029       30.1717284490        3.4055967750
  C        44.9538271555       28.8214159538        3.6430854257
  C        44.0201858896       28.5237795888        4.6537296698
  C        43.3919607334       29.5405545961        5.3659130968
  C        45.5628585997       27.7240306329        2.8578343823
  C        45.5332700256       27.7174545875        1.4365381133
  C        44.8269886837       28.7077090251        0.6835825521
  C        35.1023428335       26.6354679669        0.7515042293
  C        35.0612436521       26.6144125809        3.5616477460
  C        18.1484755051        3.2468010056        5.7066683591
  C        17.4297857359        4.3436328688        4.9973842851
  C        16.4147573344        4.0523224750        4.0736346842
  C        15.7664201669        5.0829293809        3.3982151903
  C        16.1208418600        6.4282015524        3.6211062265
  C        17.1119798883        6.7116076047        4.5786136659
  C        17.7596723114        5.6827270702        5.2584075457
  C        15.4903875556        7.5239102407        2.8486322998
  C        15.4963385836        7.5073075890        1.4274924080
  C        16.1931141356        6.5056152632        0.6807915954
  H        10.6724712466       12.4663646942        3.9038759780
  H        11.6945755683       10.5514763997        2.6620253293
  H        15.3909824779       11.1675486615        4.7730806267
  H        14.3504725435       13.0703518499        6.0184199891
  H        13.3760652763       11.6310386229        1.2012089037
  H        50.3225911366       22.7489231099        3.9874253691
  H        49.3193511303       24.6232865768        2.6812990028
  H        45.6413062333       24.1602886471        4.8629783112
  H        46.6622678811       22.2894998441        6.1713104949
  H        47.6294908095       23.5758321069        1.2462038572
  H        14.8715843674        8.5879500147        4.6085110255
  H        50.2870053599       22.7033031434       12.0597539940
  H        49.2688617152       24.5760915954       13.3598243248
  H        45.6095282010       24.1079750107       11.1469977639
  H        46.6517245298       22.2527756359        9.8327654221
  H        47.6074434342       23.5517723171       14.7968542207
  H        40.6284611429       17.0583547558       11.4140123958
  H        48.6867703952       14.0950650451        7.7999246810
  H        10.6810256307       12.4668429540       12.0936100082
  H        11.6890770032       10.5247976878       13.2972936465
  H        15.3926713094       11.1578212056       11.2048775504
  H        14.3642602462       13.0863786273        9.9895915903
  H        13.3755351651       11.6218775814       14.7530002380
  H        47.9300172632       14.2181638679        9.7109378244
  H        47.7798383789       14.3730897052        6.4948740680
  H        49.0816922663       18.5517916430       10.8668775350
  H        10.4153476297       14.1343446259        7.9988201011
  H        24.4771060379        3.0342606051        3.9078318034
  H        25.6087709193        4.8963170847        2.6783077856
  H        23.2283876083        7.7565120301        4.8354052817
  H        22.1155819290        5.8847301302        6.0666914386
  H        23.7988583182        5.8006858573        1.2497361364
  H        36.3603087843       32.1898116529        3.9823356189
  H        35.2161139473       30.3698401515        2.7156228266
  H        37.4728842409       27.4373692806        4.9083717580
  H        38.5972478415       29.2702691304        6.1847521184
  H        36.9923776476       29.4532563531        1.3029840555
  H        25.7081483531        8.6214943434        4.6421720444
  H        36.4562763598       32.2424798896       12.1151511717
  H        35.3466904548       30.4284439489       13.4161387990
  H        37.5467056015       27.4877025676       11.1754637709
  H        38.6306601180       29.3132776817        9.8613287594
  H        37.0312310526       29.4726535295       14.8556507409
  H        46.1084446551       26.5871175243       11.3855642314
  H        44.6681969782       35.1160843900        7.8139568703
  H        24.4435069093        3.0401406110       12.0794101660
  H        25.5808379088        4.8794877626       13.3252232263
  H        23.1762133280        7.7689734136       11.2360394397
  H        22.0504376930        5.9175959965        9.9902604480
  H        23.7910284096        5.7990877541       14.8005477266
  H        44.9535317174       34.3901414532        9.6950282217
  H        44.9015932947       34.2068037689        6.4905090528
  H        40.6661498717       33.2088848932       10.8531436093
  H        23.1503993045        1.9576397555        8.0045479448
  H        25.7546306477       19.6566491440        3.9667219495
  H        23.5979054448       19.7033474937        2.7158455152
  H        22.3187163739       16.1644076257        4.7981858947
  H        24.4868144637       16.1255105095        6.0439260944
  H        23.7057320745       17.6828544235        1.2419767425
  H        35.1365259854       15.4772369067        3.9769291246
  H        37.2558116572       15.4449302739        2.6520720995
  H        38.7042231674       18.8033894335        4.9159355372
  H        36.5815168634       18.8183678129        6.2379318622
  H        37.2221811449       17.4456393499        1.2443484048
  H        20.3236886731       17.9394509045        4.6500653175
  H        35.1095196238       15.5092549316       12.1739342636
  H        37.2522100683       15.4327973197       13.4459283523
  H        38.7536894105       18.7157599987       11.1051936131
  H        36.6126753292       18.7623182782        9.8171907280
  H        37.2307692878       17.4281335183       14.7962671456
  H        35.1642788168       26.6842521468       11.4088724496
  H        28.5115825521       21.0932859449        7.9857723046
  H        25.7617880059       19.6389589672       12.1501203761
  H        23.5750327235       19.7058601059       13.3632588826
  H        22.2946766183       16.1984359923       11.2290415777
  H        24.4811781218       16.1544418447       10.0113174907
  H        23.6958695706       17.6844454115       14.7911952562
  H        29.0187399570       21.7158997296        9.7563192327
  H        29.1192696110       21.7556302683        6.5944187840
  H        32.0620320233       18.5798494532       11.0064308910
  H        27.3971632923       19.0815529328        8.0839762044
  H        14.8536555957       19.6713035644       12.1091045196
  H        17.0219733235       19.7292282697       13.3452315260
  H        18.3049572313       16.2012598680       11.2463921252
  H        16.1329273663       16.1595899336       10.0093834523
  H        16.9135257990       17.7245668290       14.8123148980
  H        46.0890883910       15.4400467266       12.0681342486
  H        43.9624391673       15.3743337162       13.3698770448
  H        42.5341650016       18.7951127946       11.1878364452
  H        44.6616657474       18.8363510314        9.8759720323
  H        44.0127905615       17.3212536484       14.8211256635
  H        20.2979576498       17.9496290326       11.4039626469
  H        46.0397959153       15.3954193827        4.0223838585
  H        43.9099432984       15.3398539239        2.7262323076
  H        42.5212189643       18.7985067740        4.8730223417
  H        44.6570099766       18.8398743953        6.1708679973
  H        44.0033547359       17.3145586775        1.2703466221
  H        46.1986131558       26.6823479237        4.6233514194
  H        52.7410352309       21.0625606222        8.1946257871
  H        14.8697848730       19.6752836896        3.9042194299
  H        17.0649596846       19.7441372785        2.7099133360
  H        18.3066340029       16.1956898475        4.7986074369
  H        16.1142053948       16.1517133811        6.0037596403
  H        16.9227342673       17.7225654678        1.2608718966
  H        52.3220386014       21.6733893112        6.2947155241
  H        52.0130987920       21.7022038951        9.4954616125
  H        49.0671235819       18.6079109439        5.2044527361
  H        13.2468553252       19.0165431679        7.9757807564
  H        29.9698221489       12.4513183940       12.2030429228
  H        28.9100635560       10.5231108990       13.3852202794
  H        25.2616068120       11.1974223010       11.2100370494
  H        26.3389727047       13.1162737214       10.0224800470
  H        27.2052614384       11.6603792249       14.7871836856
  H        30.9993813039       22.7817407801       12.0200638863
  H        32.0109842526       24.6569776185       13.3183185013
  H        35.6998497248       24.1398946943       11.1673497908
  H        34.6676689005       22.2718028940        9.8632814572
  H        33.6844188503       23.5732563436       14.7594995953
  H        25.7297160342        8.5925672679       11.3962684156
  H        30.8996930668       22.6870561239        3.9355835701
  H        31.9152440542       24.5535085642        2.6273131926
  H        35.5522043367       24.1475189075        4.8888558126
  H        34.5215180207       22.2847110820        6.1959118460
  H        33.6335841396       23.5608565512        1.2087458603
  H        40.5954786102       17.0962907962        4.6536318034
  H        32.5204966493       14.1511344965        8.2603494145
  H        29.9054319383       12.4778331249        3.9622554631
  H        28.8676404648       10.5926003083        2.6993590449
  H        25.1766208659       11.2142196144        4.8173873974
  H        26.2304824776       13.0965506664        6.0818735998
  H        27.1864228260       11.6772671670        1.2373020722
  H        33.2888909009       14.1790400112        6.4250230610
  H        33.4060876125       14.3958862016        9.6152475209
  H        32.1500526620       18.5715753914        5.1630978854
  H        30.2409315909       14.1975073908        8.0877234658
  H        16.1184719557        2.9629812660       12.1298760171
  H        14.9531297990        4.8199316570       13.3226261691
  H        17.3652543527        7.6857693202       11.2096986314
  H        18.5141755894        5.8182914688       10.0098651921
  H        16.7532956246        5.7393431301       14.7714788724
  H        44.8282257192       32.1400922824       11.9768477547
  H        45.9373443492       30.3411213853       13.3062647427
  H        43.6817123797       27.3781089309       11.1526778178
  H        42.5992330297       29.1899685023        9.8100167958
  H        44.2302462945       29.4367640702       14.7688995358
  H        14.8502521795        8.5456329504       11.3632799601
  H        44.9000021178       32.2339996478        3.9319421306
  H        46.0247840443       30.4129017132        2.6524314011
  H        43.7630034420       27.4840742524        4.8451390489
  H        42.6453142513       29.3177118777        6.1241989156
  H        44.2684500976       29.4705800442        1.2181536625
  H        35.0101610248       26.6272886652        4.6487786812
  H        36.6051166587       35.1339448150        8.1806691999
  H        16.1438274675        3.0127228050        3.9037865081
  H        14.9742150596        4.8560118869        2.6880182241
  H        17.3952045741        7.7471114596        4.7557302129
  H        18.5423076832        5.8931900771        5.9834241605
  H        16.7645057229        5.7553444320        1.2192301922
  H        36.2786476591       34.4822438221        6.2732842775
  H        36.3805869271       34.2091398240        9.4997073920
  H        40.5790378775       33.2015699262        5.1543200243
  H        17.4708712191        1.9468619066        7.9740678692
  H        29.2246370976       19.6613017731       12.5755194214
  H        29.9458463301       19.3885225404        3.2294436209
  H        30.6972517622       15.3201643990        3.9278086153
  H        30.7777129298       15.6269655102       12.4272397147
  H        28.0453355243       18.2348375498       14.6245687577
  H        29.2490774066       16.0241638590       14.9132893704
  H        31.5530815691       19.6528451427        1.7864884220
  H        33.5334502838       16.9767650649       -0.2572926875
  H        29.5902001552       16.0849214469        1.0952986892
  H        32.4875820894       16.7005094329       13.4135507435
  H        18.8533349904        0.8690015542       12.3351591661
  H        40.5280308341       35.2290849495        3.9521852532
  H        42.3233891059       34.4182559869        3.5910704634
  H        22.0879126477        0.6918490708       12.3516944870
  H        11.5967927975       18.7127843220       12.3825094465
  H        52.2646611069       18.4313061922        3.6775029758
  H        49.2550002267       16.4768985280        3.5846191417
  H        10.1500219111       15.7982863226       12.2927848419
  H        50.8497980717       17.6925190940        3.9541616252
  H        10.0457657019       17.3946584790       12.0520065278
  H        20.2145726743        0.0022440519       12.0420528703
  H        39.1835314353       36.1243085026        3.6863813197
 Ni        31.1099273588       17.3329350893        2.7519060084
 Ni        31.4157055631       16.7140992036       -0.4140567015
 Ni        29.8013724338       18.7693974223        0.2468089637
 Ni        29.9698798488       17.5958447202       13.3199855195
  O        10.6498459587       14.3651210923        5.4857640240
  O        12.6130574136       14.6573795694        6.5839064046
  O        49.1476364261       16.8459882379        7.9897798147
  O        50.3500935164       20.9362672267        5.6482819374
  O        48.3484354031       20.5932759336        6.6659924405
  O        11.0510534428       17.0539761064        6.5005759550
  O        50.3207850510       20.8817500829       10.4068816532
  O        48.3466230949       20.5867495769        9.3271047685
  O        49.5432848126       18.2484306047       10.0684241668
  O        12.3585553748       18.6245872536        7.9997611807
  O        48.6931528302       14.1486544193        6.7512464337
  O         8.2097691366       14.2104649841        9.3226165011
  O        10.7352154327       14.5067441893       10.6644002287
  O        12.5717039165       14.5827328700        9.3285796239
  O        22.8446077797        2.0437093231        5.4868973053
  O        21.6052544830        3.5923125827        6.5898081402
  O        42.0579704733       34.1371743215        7.9790153211
  O        37.9813151563       33.1368174068        5.5725324420
  O        39.2174701495       31.5754013749        6.6660193512
  O        20.3083887106        1.0395219664        6.5020147739
  O        38.0245767541       33.1852775285       10.4155623381
  O        39.2185944005       31.5832271929        9.3272300403
  O        40.6522050621       33.7691901450       10.0602443131
  O        18.2556485201        1.3758127448        7.9967910891
  O        44.6221901721       35.1005755764        6.7587469605
  O        24.2053722204        0.0000205968        9.3208240528
  O        22.7532237552        2.0581023883       10.5838930196
  O        21.6245838770        3.5963147614        9.3428191884
  O        27.4561386073       18.6879511517        5.4960906291
  O        26.6945120762       16.9134795042        6.6798887987
  O        30.6615460631       19.4096098525        8.0719716125
  O        33.5848204381       16.2854053086        5.6693193642
  O        34.2669561401       18.1758243133        6.7379119195
  O        29.5669548222       17.0680930964        6.5753979829
  O        33.5475319120       16.3431114014       10.4212139794
  O        34.2990560179       18.2394773476        9.4086107047
  O        31.6483976805       18.3196274248       10.1649457785
  O        30.3267630492       15.1649408800        8.0816496310
  O        28.5472140414       21.0335643814        6.9098890413
  O        28.5158813389       20.9569807849        9.4131908475
  O        27.4577882374       18.6801374645       10.6583853477
  O        26.6948459142       16.9286971840        9.4134790939
  O        13.1472814161       18.6936418277       10.5864914820
  O        13.9185365565       16.9160691015        9.4043476525
  O        50.5955152659       19.3502501919        8.0208359072
  O        47.6819422116       16.3273070187       10.4175290021
  O        46.9500858061       18.1755360632        9.3256499921
  O        11.0688229908       17.0159158646        9.4897387854
  O        47.6751631787       16.3360451121        5.6524640288
  O        46.9263562361       18.2357948254        6.6639506060
  O        49.5686808152       18.3177383723        5.9823778550
  O        10.3184037485       15.1002352510        7.9971512109
  O        52.6707150291       21.0280140220        9.2418354427
  O        12.1468198280       20.8913134623        6.6732598067
  O        13.1056442324       18.6140760272        5.3260614870
  O        13.9550626732       16.9861574930        6.6655963088
  O        30.0033327688       14.4377389235       10.6684326601
  O        28.0813306383       14.6571282507        9.4853786962
  O        32.0975076396       16.9021493507        8.0771626421
  O        30.9646789708       20.9549451844       10.4093199797
  O        32.9462217894       20.6045203837        9.3430468181
  O        29.5594399404       17.0847745124        9.5722600314
  O        30.8580838619       20.8914589856        5.6614201398
  O        32.8736188764       20.5818930116        6.6656157607
  O        31.6095465682       18.2522258160        5.9049824337
  O        28.2810878317       18.6787689466        8.0776576829
  O        32.4911815097       14.2164184134        9.3316797808
  O        32.4048981436       14.2140473520        6.8266027436
  O        29.9092090009       14.4336495330        5.4890835224
  O        28.0356800897       14.5883717809        6.7532071787
  O        17.8892045384        1.9665107953       10.6627958728
  O        18.9562029739        3.5270970459        9.4080033862
  O        39.1686403711       34.1386449758        7.9971412158
  O        43.2801797100       33.0589336139       10.3316640566
  O        42.0343960506       31.5065033639        9.2415757507
  O        20.3175425954        1.0365309800        9.4802964170
  O        43.2760559039       33.1826079790        5.5749393104
  O        42.0052376441       31.5841587807        6.5830179833
  O        40.5790578931       33.7749643661        5.9359387729
  O        22.3672173165        1.3845132188        7.9979757513
  O        36.6727688563       35.0996810106        9.2333175349
  O        16.4455979611        0.0641640224        6.6682760417
  O        17.9363945047        2.0432241874        5.3264405995
  O        18.9190170185        3.5930670880        6.6659290316
  O        29.3654752579       19.3518255246        4.0794453706
  O        29.7890108559       19.0468854956       12.0720490723
  O        31.3457586803       16.0349713534        4.0831205663
  O        31.0851154572       16.4814104613       12.0630059346
  O        33.1230560372       17.0772964175        0.6646656917
  O        30.2079829465       16.8459998365        1.0733540791
  O        30.0845286038       16.0586297009       14.4112908892
  O        32.7430350199       16.9870289780       14.3140717222
  O        30.7522609044       19.1174776810        1.9150446168
  O        28.9420795286       18.6107905146       14.5856435116
  O        39.4568124678       35.2437613416        4.0020009421
  O        19.1413381717        0.0045220711       11.9905567578
  O        41.9696060101       35.1727433547        4.0872237695
  O        21.6913004698       -0.0693445411       11.8958766109
  O        51.3647789193       18.6143525517        4.0053764293
  O        10.7509907618       18.7472461261       11.9050283493
  O        50.0795530545       16.4127799621        4.0917460229
  O         9.5241949185       16.4831500133       11.9912521192
 Zr         9.2960341053       16.0529203249        6.1822506291
 Zr        49.8352764852       16.0070300729        9.7467137232
 Zr        22.0731496417        0.0293713920        6.1891833507
 Zr        42.4608018666       35.1530817020        9.8009050452
 Zr        29.5851407103       19.1131684726        6.3325530632
 Zr        29.5730093841       19.1712915062        9.9064587260
 Zr        11.0369968099       19.0524181931        9.8277779013
 Zr        11.0428093877       19.1551719497        6.2515374979
 Zr        31.3377269081       16.1184355621        9.8909087222
 Zr        31.4028390011       16.0075443742        6.2779252632
 Zr        18.6008505097       -0.0020582897        9.7634574408
 Zr        18.5064407428       -0.0081920953        6.2135795400
 Zr        12.3003346744       16.3233906100        7.9907128307
 Zr        48.6150853177       18.8328233140        8.0105932090
 Zr        20.3148969845        2.4729078682        7.9908064583
 Zr        40.6429632319       32.6863448157        7.9781181167
 Zr        28.3416070321       16.3448239128        8.0802391396
 Zr        32.6299539467       18.8515608961        8.0659121360
  H        28.4975705505       18.9720543600        3.8466538165
  H        33.3407801112       16.2866165678        1.1886040237
