     569
 i =      179, E =     -4729.5112939337
  C        11.8587951978       14.0534319841        5.7415819896
  C        12.4563069003       12.8905651257        5.0232505636
  C        11.7046331616       12.1716159089        4.0815753896
  C        12.2810364965       11.1094139901        3.3892587178
  C        13.6216259175       10.7396290196        3.6169778951
  C        14.3547981717       11.4432636128        4.5904009473
  C        13.7818736749       12.5082101652        5.2819209155
  C        14.2610895881        9.6489071817        2.8436032817
  C        14.2561765696        9.6567167151        1.4218996194
  C        13.7430096696       10.7588355250        0.6679880003
  C        49.1267293238       21.2333747966        5.8797428982
  C        48.5498844978       22.4012712757        5.1526431761
  C        49.2998728022       23.0684854946        4.1715449470
  C        48.7329202059       24.1075816853        3.4383036904
  C        47.4024218010       24.5093052010        3.6670177594
  C        46.6715330235       23.8605608929        4.6806658148
  C        47.2340050788       22.8156978641        5.4100540613
  C        46.7721515772       25.5869595224        2.8697275442
  C        46.7611170091       25.5573051887        1.4479706664
  C        47.2610430064       24.4422044324        0.7044862073
  C        14.8599974926        8.5703194859        0.7086269505
  C        14.8919857630        8.5970165371        3.5202466528
  C        49.1132919133       21.2034767542       10.1453068983
  C        48.5279526802       22.3649078208       10.8724389071
  C        49.2669979649       23.0251995737       11.8657608501
  C        48.6907166794       24.0597774800       12.5972298794
  C        47.3605269540       24.4570373935       12.3585756266
  C        46.6403578728       23.8126134281       11.3345671576
  C        47.2138651734       22.7766977874       10.6027660820
  C        46.7220183484       25.5319499566       13.1496128171
  C        46.7334981363       25.5281720760       14.5713217677
  C        47.2488450883       24.4289259954       15.3277241767
  C        40.6246492258       17.1154588886       15.3133116819
  C        40.6385578928       17.1589812595       12.5029860041
  C        11.8829192429       14.0864236530       10.2855627918
  C        12.4720866184       12.9105483473       10.9896927239
  C        11.7145625378       12.1774621186       11.9159035385
  C        12.2810831722       11.0949737463       12.5843060880
  C        13.6198494238       10.7210568253       12.3523738480
  C        14.3578057625       11.4364772536       11.3914347682
  C        13.7924469829       12.5176845583       10.7187477263
  C        14.2534126618        9.6243005898       13.1228120762
  C        14.2521070907        9.6442560801       14.5446534601
  C        13.7423558465       10.7532541289       15.2917330526
  C        22.5117486209        3.2436232425        5.7523543743
  C        23.2269193828        4.3462537372        5.0503963075
  C        24.2235690810        4.0614770232        4.1051979645
  C        24.8534754420        5.0976530793        3.4210357695
  C        24.5020970837        6.4406896209        3.6617129876
  C        23.5328967185        6.7169368928        4.6434134687
  C        22.8985932547        5.6826122087        5.3263710691
  C        25.1120192928        7.5449302094        2.8866458820
  C        25.0906104117        7.5375750655        1.4649993441
  C        24.3937658062        6.5372871632        0.7154643798
  C        38.2978989558       31.9276881728        5.8520662789
  C        37.5556588379       30.8388333233        5.1511626585
  C        36.5893626858       31.1461067581        4.1807166324
  C        35.9579351625       30.1285171677        3.4704861260
  C        36.2772229951       28.7769304716        3.7070597493
  C        37.2128667892       28.4770263467        4.7152879288
  C        37.8482870317       29.4936807027        5.4249823067
  C        35.6661341118       27.6893314567        2.9075135377
  C        35.7079126450       27.7041617792        1.4859018268
  C        36.4239560628       28.7036439786        0.7542509183
  C        25.7135360838        8.6095575698        0.7481430006
  C        25.7070914211        8.6190651279        3.5600195857
  C        38.3318610528       31.9607281108       10.1610013868
  C        37.6191370151       30.8862164282       10.9121604256
  C        36.6844513698       31.1931102161       11.9130470519
  C        36.0784942226       30.1743816055       12.6464743990
  C        36.3924270294       28.8218377973       12.4037919620
  C        37.3088034046       28.5248031553       11.3761874332
  C        37.9162163585       29.5400353639       10.6436046093
  C        35.7786680871       27.7225052851       13.1849335612
  C        35.7649164262       27.7214134036       14.6075299030
  C        36.4494057782       28.7134303995       15.3777867004
  C        46.1354107398       26.6207765657       15.2814481336
  C        46.0881825602       26.5803869863       12.4735615280
  C        22.4646052055        3.2564200075       10.2568526646
  C        23.1666140635        4.3636636793       10.9755078601
  C        24.1749869892        4.0747869503       11.9090731502
  C        24.8102124991        5.1026523474       12.6022080876
  C        24.4576146040        6.4499620548       12.3857489549
  C        23.4729250710        6.7321388911       11.4198115846
  C        22.8334448254        5.7045696822       10.7265277337
  C        25.0913970001        7.5457926589       13.1622449986
  C        25.0813110591        7.5372371552       14.5853135109
  C        24.3876722216        6.5379472427       15.3385122387
  C        26.5596396756       17.8224229066        5.7860522189
  C        25.2594463443       17.8781516787        5.0580140041
  C        25.0107497552       18.8804952484        4.1077649953
  C        23.8022507698       18.9071294540        3.4161256567
  C        22.8103443048       17.9348163944        3.6539332453
  C        23.0547808795       16.9556843996        4.6348079550
  C        24.2647800690       16.9237494320        5.3245865994
  C        21.5451381818       17.9269859207        2.8812906237
  C        21.5567210366       17.9192010302        1.4594723782
  C        22.7679244722       17.7929860140        0.7087235723
  C        34.4387623353       17.1911346202        5.9221093863
  C        35.7310835131       17.1486752323        5.1760453539
  C        35.9385612691       16.1753287403        4.1860168044
  C        37.1180748837       16.1622022535        3.4472406375
  C        38.1233080495       17.1210361981        3.6787221766
  C        37.9187010486       18.0760533199        4.6926627633
  C        36.7355804260       18.0949268441        5.4283745559
  C        39.3768146273       17.1271124589        2.8904621874
  C        39.3704219352       17.1340572196        1.4684914870
  C        38.1615645029       17.2486091751        0.7123336733
  C        20.3156840612       17.9510073951        0.7430776366
  C        20.3171580516       17.9234413753        3.5556597519
  C        34.4387624679       17.2240204835       10.2076556940
  C        35.7466532040       17.1473510848       10.9182045534
  C        35.9881891135       16.1452281527       11.8709242179
  C        37.1779283110       16.1336203344       12.5931256512
  C        38.1591939800       17.1207183780       12.3789425489
  C        37.9283704058       18.0946084584       11.3894088946
  C        36.7353332697       18.1127467683       10.6716397618
  C        39.4092973719       17.1406624790       13.1706559807
  C        39.3864683608       17.1404072805       14.5918205858
  C        38.1690403733       17.2491762317       15.3353913204
  C        35.1204288985       26.6468511711       15.3068777981
  C        35.2024221653       26.6463329873       12.4970050915
  C        26.5890075568       17.7966031215       10.3328448803
  C        25.2790159179       17.8642301751       11.0414125781
  C        25.0285589188       18.8718118010       11.9852382778
  C        23.8070781642       18.9158271186       12.6524985224
  C        22.8091134249       17.9531584073       12.3987473040
  C        23.0560592184       16.9714586245       11.4221320432
  C        24.2766785560       16.9252040268       10.7530967277
  C        21.5400417222       17.9472956120       13.1622349453
  C        21.5537535976       17.9293304833       14.5833624424
  C        22.7659808915       17.7971169012       15.3325152113
  C        14.0490892939       17.8345331066       10.2824564073
  C        15.3593046167       17.9060796885       10.9943093926
  C        15.6198366803       18.9251894726       11.9236228156
  C        16.8328756690       18.9587519525       12.6083225499
  C        17.8182676256       17.9758764687       12.3861394651
  C        17.5640539019       16.9829114178       11.4214697868
  C        16.3506722208       16.9452410989       10.7375098427
  C        19.0843528208       17.9630347020       13.1595076680
  C        19.0721156357       17.9549655100       14.5815698601
  C        17.8585385075       17.8579490013       15.3326911041
  C        46.8041945903       17.2184732519       10.1577638974
  C        45.5123057145       17.1565938511       10.9008959387
  C        45.3013148893       16.1753182913       11.8817804974
  C        44.1181956356       16.1581623132       12.6157448512
  C        43.1164938797       17.1228429043       12.3914329022
  C        43.3244368475       18.0833634551       11.3832483413
  C        44.5079882120       18.1039594896       10.6497917033
  C        41.8635284454       17.1357870918       13.1804181776
  C        41.8704105307       17.1287742906       14.6025448292
  C        43.0805414235       17.2185050026       15.3602003156
  C        20.3134753604       17.9558514306       15.2987115590
  C        20.3129308953       17.9433295756       12.4861470515
  C        46.7853960562       17.2321628035        5.8875761362
  C        45.4829841432       17.1283100628        5.1692682108
  C        45.2628803199       16.1280117188        4.2102341260
  C        44.0752686881       16.1019064136        3.4829712373
  C        43.0782565961       17.0733688818        3.6973458015
  C        43.2890785107       18.0442998029        4.6941733362
  C        44.4776195838       18.0764881970        5.4167085836
  C        41.8312910978       17.0954740529        2.9010812898
  C        41.8542974093       17.1067947649        1.4800264478
  C        43.0727576553       17.2057006177        0.7370553276
  C        46.1530960412       26.6371692677        0.7262078993
  C        46.1622564278       26.6561203213        3.5358415015
  C        14.0400133548       17.8275837319        5.7046866322
  C        15.3523964357       17.8950797737        5.0012567268
  C        15.6222602249       18.9185130684        4.0806532993
  C        16.8452122039       18.9556458203        3.4157204429
  C        17.8233142495       17.9681137292        3.6465642726
  C        17.5585755118       16.9697709224        4.6013944981
  C        16.3380371277       16.9325294511        5.2705283634
  C        19.0905215758       17.9512791580        2.8802365674
  C        19.0754871655       17.9473506723        1.4589509979
  C        17.8603553861       17.8539159649        0.7090256322
  C        28.7872688387       14.1194879975       10.4032138747
  C        28.1924184311       12.9409713380       11.0931246224
  C        28.9216806784       12.2089539148       12.0421757950
  C        28.3334128547       11.1243790151       12.6887976155
  C        27.0027629031       10.7488299083       12.4112097877
  C        26.2973178253       11.4618767104       11.4253327562
  C        26.8826982159       12.5454057124       10.7766942208
  C        26.3398537901        9.6616021185       13.1673485043
  C        26.3213054681        9.6871380361       14.5882760858
  C        26.8112599464       10.8044015248       15.3365697920
  C        32.1911402689       21.2404693666       10.1363228433
  C        32.7886322701       22.4048763292       10.8569625911
  C        32.0226393786       23.1300113056       11.7840632026
  C        32.5956745526       24.1623287896       12.5206226782
  C        33.9502910862       24.5051870674       12.3468518288
  C        34.7005526212       23.8028322979       11.3849528532
  C        34.1305704728       22.7616325844       10.6535714472
  C        34.5727800533       25.5825331148       13.1521578728
  C        34.5346810888       25.5631702500       14.5735016014
  C        34.0019085643       24.4568098230       15.3076294423
  C        25.7135893787        8.6055702536       15.3033270041
  C        25.7077656701        8.6100381506       12.4899753895
  C        32.0749230786       21.1951894777        5.8751013029
  C        32.6440284358       22.3602170245        5.1337285302
  C        31.9082572077       23.0066323100        4.1286968988
  C        32.4771640534       24.0504354678        3.4006310942
  C        33.7963741317       24.4756100304        3.6549997260
  C        34.5133679633       23.8415774289        4.6882976339
  C        33.9490850170       22.7959882840        5.4136678561
  C        34.4366285897       25.5611851048        2.8742587892
  C        34.4658524743       25.5521015840        1.4515924326
  C        33.9693546272       24.4513113162        0.6843349367
  C        40.6159793863       17.1079559624        0.7580962453
  C        40.6013580742       17.1247039942        3.5679352503
  C        28.7395803966       14.0601719149        5.8163653974
  C        28.1298411600       12.9144128961        5.0804939790
  C        28.8623091884       12.2316068238        4.0976276873
  C        28.2843782205       11.1733608749        3.4012517148
  C        26.9578051323       10.7737027012        3.6603929337
  C        26.2425585799       11.4452233755        4.6695436303
  C        26.8192946442       12.5031892275        5.3692913386
  C        26.3184632193        9.6838693584        2.8857617979
  C        26.3100231122        9.6992552935        1.4638768271
  C        26.8034874054       10.8117071050        0.7124684287
  C        18.1354672378        3.1809864687       10.3171823317
  C        17.4060735448        4.2781640591       11.0157226401
  C        16.3901864076        3.9997199395       11.9430428722
  C        15.7423700758        5.0396413615       12.6065296314
  C        16.0943735181        6.3833798880       12.3670587602
  C        17.0839684573        6.6529940615       11.4035407670
  C        17.7331631389        5.6157084443       10.7384895576
  C        15.4699069041        7.4910000389       13.1301147160
  C        15.4851040173        7.4902576977       14.5518304350
  C        16.1866924924        6.4966582452       15.3049853814
  C        42.9458129166       31.8596036499       10.0727896028
  C        43.6462663485       30.7719031458       10.8167355584
  C        44.5914521524       31.0933001624       11.8030934195
  C        45.1972341130       30.0877970281       12.5507636797
  C        44.8712027633       28.7346926425       12.3356211836
  C        43.9457964474       28.4202755148       11.3220448081
  C        43.3369239784       29.4253802588       10.5739963454
  C        45.4887696059       27.6554037144       13.1388220873
  C        45.4927198760       27.6809142691       14.5605225028
  C        44.8055605828       28.6889192135       15.3071434759
  C        14.8561334474        8.5627472044       15.2641943779
  C        14.8746672110        8.5627845511       12.4515236250
  C        42.9464087990       31.9616754235        5.8089413571
  C        43.6916060945       30.8854891477        5.0954322946
  C        44.6562682405       31.1913877780        4.1232113783
  C        45.2777765630       30.1717937462        3.4054681295
  C        44.9538812000       28.8214989039        3.6430201923
  C        44.0203205548       28.5238303825        4.6537214058
  C        43.3920789895       29.5406091286        5.3659045588
  C        45.5628976787       27.7240724963        2.8577850840
  C        45.5331319210       27.7173293922        1.4364932359
  C        44.8267972749       28.7075450975        0.6835372936
  C        35.0879902159       26.6397588866        0.7522900355
  C        35.0485208654       26.6173950093        3.5622404582
  C        18.1487184947        3.2469576112        5.7066287330
  C        17.4301774299        4.3437648862        4.9972793311
  C        16.4146660342        4.0525032548        4.0740315987
  C        15.7663586716        5.0831336606        3.3986396844
  C        16.1212921630        6.4283492839        3.6210705520
  C        17.1130739546        6.7117308809        4.5779046492
  C        17.7607427786        5.6828223739        5.2576914327
  C        15.4906815339        7.5240154019        2.8486430565
  C        15.4963128311        7.5072684264        1.4275076729
  C        16.1929979691        6.5055208160        0.6807998186
  H        10.6725012256       12.4657163275        3.9045398344
  H        11.6947666885       10.5508858356        2.6627385186
  H        15.3918694370       11.1687718569        4.7720787155
  H        14.3513632124       13.0714038642        6.0173607299
  H        13.3762188087       11.6310648488        1.2012782485
  H        50.3225552664       22.7483879110        3.9867579282
  H        49.3193854471       24.6227860226        2.6806666803
  H        45.6420995387       24.1614735244        4.8639367505
  H        46.6630954396       22.2905638065        6.1722946753
  H        47.6296024180       23.5758373088        1.2461726168
  H        14.8726064869        8.5883955030        4.6085605561
  H        50.2868640670       22.7019707684       12.0609888549
  H        49.2690190805       24.5749182130       13.3610100173
  H        45.6111869475       24.1103759543       11.1450626244
  H        46.6532527155       22.2549584621        9.8307634851
  H        47.6076958590       23.5518268900       14.7968456622
  H        40.6428612276       17.1344026501       11.4149034500
  H        48.6871714403       14.0950566126        7.8000297279
  H        10.6811446354       12.4666472918       12.0933869497
  H        11.6893009019       10.5246634670       13.2970801200
  H        15.3932246417       11.1585480012       11.2054593817
  H        14.3648705304       13.0869730891        9.9902226173
  H        13.3756592628       11.6219301212       14.7531124345
  H        47.9302144359       14.2184484196        9.7109233496
  H        47.7800670788       14.3740873082        6.4954600894
  H        49.0836897006       18.5523237425       10.8674229768
  H        10.4163036553       14.1342653640        7.9988672793
  H        24.4824412643        3.0218195651        3.9175933124
  H        25.6272344006        4.8767949773        2.6889748402
  H        23.2544220669        7.7511060686        4.8351220503
  H        22.1285590011        5.8864857094        6.0663962264
  H        23.8322057389        5.7787598757        1.2529977228
  H        36.3579848379       32.1903646205        3.9843924866
  H        35.2097662303       30.3722072223        2.7193313093
  H        37.4678168890       27.4367035811        4.9067416797
  H        38.5961803630       29.2681234769        6.1815914188
  H        36.9848046979       29.4530306853        1.3051340754
  H        25.7399468269        8.6002862000        4.6478595759
  H        36.4516666332       32.2366662968       12.1128020997
  H        35.3465426373       30.4195115755       13.4129068392
  H        37.5658419194       27.4855767423       11.1820043198
  H        38.6440520401       29.3142678013        9.8680317900
  H        37.0306149454       29.4698457014       14.8582173036
  H        46.1098874590       26.5879650624       11.3855318043
  H        44.6683279345       35.1161984225        7.8139715475
  H        24.4515515804        3.0358030809       12.0735438100
  H        25.5948714612        4.8704158014       13.3191493030
  H        23.1884164554        7.7673890455       11.2427515784
  H        22.0575631967        5.9210618081        9.9957634348
  H        23.8211541880        5.7803520759       14.8049038972
  H        44.9538440481       34.3904096954        9.6951998898
  H        44.9018752877       34.2068265951        6.4906985438
  H        40.6666426019       33.2095721856       10.8534186066
  H        23.1506234704        1.9579448019        8.0049288223
  H        25.7742376028       19.6335426574        3.9264315258
  H        23.6113949849       19.6888374015        2.6840802812
  H        22.2986208413       16.1965898659        4.8242592223
  H        24.4685819184       16.1544214307        6.0656006381
  H        23.7037181673       17.6583754710        1.2436063544
  H        35.1579647107       15.4405451136        4.0040777515
  H        37.2767666580       15.3995836998        2.6878978838
  H        38.6862632099       18.8254879018        4.8746473583
  H        36.5611517663       18.8472829758        6.1940965276
  H        37.2221090920       17.3675975319        1.2445713277
  H        20.3166212924       17.9511213312        4.6438458122
  H        35.2324152704       15.3817193634       12.0400059602
  H        37.3618061692       15.3549130140       13.3301160798
  H        38.6811828019       18.8611341010       11.2173262629
  H        36.5362541748       18.8815055268        9.9285860317
  H        37.2346698147       17.3681547515       14.7943844425
  H        35.1958919366       26.6651666062       11.4088087740
  H        28.4979844586       21.1042819388        7.8038543536
  H        25.8015970421       19.6144713332       12.1725539995
  H        23.6101318576       19.7012134135       13.3790660018
  H        22.2935384476       16.2217717495       11.2211609027
  H        24.4826755776       16.1563916796       10.0122990864
  H        23.7005065302       17.6642184810       14.7955370390
  H        28.9248393647       21.7371810174        9.7221383577
  H        29.2087221088       21.6834322716        6.4644184381
  H        32.1369696087       18.5862132436       10.9516698750
  H        27.3461954909       19.0666752965        8.0640672132
  H        14.8603824627       19.6847003845       12.0952136306
  H        17.0310785223       19.7530667529       13.3248105997
  H        18.3155329171       16.2169772551       11.2410294297
  H        16.1416148214       16.1650646783       10.0094178276
  H        16.9192462529       17.7536688576       14.7975874506
  H        46.0815863640       15.4396823661       12.0624555932
  H        43.9553382751       15.3895376893       13.3680759399
  H        42.5594827242       18.8364194836       11.2055159997
  H        44.6850597158       18.8599221677        9.8883504075
  H        44.0219609340       17.3307941419       14.8301121700
  H        20.3146998082       17.9754195816       11.3980376941
  H        46.0379959213       15.3850776967        4.0364294919
  H        43.9073639069       15.3250767133        2.7401563054
  H        42.5245361344       18.7990922491        4.8660348846
  H        44.6614246173       18.8447848232        6.1637045296
  H        44.0084241899       17.3069100258        1.2793753961
  H        46.1991965420       26.6827461843        4.6232819477
  H        52.7413003425       21.0626417035        8.1946558740
  H        14.8646447412       19.6790356211        3.9053103911
  H        17.0570148153       19.7533679399        2.7070376165
  H        18.3064830765       16.2009252990        4.7839906884
  H        16.1171850292       16.1515570465        5.9940665786
  H        16.9223481326       17.7464154527        1.2455339633
  H        52.3226183527       21.6736110781        6.2945557282
  H        52.0133564861       21.7023428029        9.4954581163
  H        49.0677239374       18.6079693112        5.2039804111
  H        13.2476550467       19.0162612364        7.9753100125
  H        29.9482100421       12.5016642431       12.2536397756
  H        28.8996921897       10.5541992382       13.4220974339
  H        25.2694704600       11.1821859702       11.2036475183
  H        26.3347446894       13.1162251384       10.0311417044
  H        27.1643436618       11.6795960116       14.7994906828
  H        30.9753211596       22.8706643230       11.9189818040
  H        31.9958925458       24.7200243946       13.2366751308
  H        35.7485652708       24.0589741059       11.2431659207
  H        34.7155864261       22.1958319304        9.9320124304
  H        33.6438819355       23.5899098118       14.7595567939
  H        25.7399079484        8.5932729827       11.4019510114
  H        30.8958229971       22.6680424288        3.9196740578
  H        31.8977400962       24.5515814165        2.6282918523
  H        35.5348321982       24.1561761847        4.8919246431
  H        34.5105323981       22.2860179429        6.1927923960
  H        33.5872244511       23.5795110841        1.2077814937
  H        40.5958025429       17.0915071417        4.6557465172
  H        32.5153833123       14.1451651814        8.2311637419
  H        29.8836801521       12.5464694513        3.8961752659
  H        28.8598013763       10.6392698875        2.6483067124
  H        25.2157298380       11.1501121177        4.8755168840
  H        26.2635427221       13.0382055184        6.1356634231
  H        27.1503481616       11.6917058105        1.2464179376
  H        33.3076980515       14.2346412609        6.4613356735
  H        33.4027994603       14.3722732472        9.6141937640
  H        32.0804711953       18.4413347149        5.1370949043
  H        30.1911396200       14.1378279749        8.0959296965
  H        16.1180823202        2.9632040715       12.1292921311
  H        14.9528032319        4.8202124706       13.3220462138
  H        17.3665809359        7.6858692076       11.2106829354
  H        18.5154147759        5.8184669686       10.0109006406
  H        16.7533095875        5.7393714515       14.7714800553
  H        44.8274198242       32.1404223368       11.9774813258
  H        45.9368753442       30.3416424475       13.3068978997
  H        43.6835636085       27.3781440386       11.1515971296
  H        42.6007299617       29.1900217275        9.8089277625
  H        44.2302747039       29.4367313217       14.7688295032
  H        14.8510633714        8.5460936474       11.3633000665
  H        44.8999040919       32.2340664722        3.9318512118
  H        46.0247630459       30.4130189788        2.6523085566
  H        43.7633035828       27.4841025012        4.8452214045
  H        42.6455127731       29.3178689628        6.1243008458
  H        44.2683451524       29.4704728988        1.2181269348
  H        34.9996465515       26.6290822560        4.6494837678
  H        36.6054187880       35.1341001340        8.1805601666
  H        16.1433636722        3.0129476725        3.9045368404
  H        14.9738122629        4.8563215992        2.6887946330
  H        17.3969653133        7.7471548820        4.7544350244
  H        18.5439704552        5.8933113826        5.9820646679
  H        16.7645532661        5.7553630260        1.2192248734
  H        36.2792163728       34.4820209040        6.2732999135
  H        36.3813164118       34.2088323607        9.4992718581
  H        40.5790139182       33.2021187020        5.1538147238
  H        17.4713458739        1.9475921572        7.9741333915
  H        29.1464790732       19.1691922781       12.8681800254
  H        28.7365812663       18.6918631799        3.8291964291
  H        31.8119364661       15.7602662458        3.5438164398
  H        31.1687711379       15.7117649991       12.8813285076
  H        27.7193097973       18.4910153715       14.3330336552
  H        29.9713134341       14.6019033671       14.4590207946
  H        32.4474913671       17.2824139895        1.4320838959
  H        18.8535439297        0.8690106395       12.3352066398
  H        40.5281994124       35.2288743045        3.9520261468
  H        42.3239050548       34.4188006867        3.5903723607
  H        22.0875906170        0.6921470620       12.3515472305
  H        11.5967089596       18.7128202443       12.3829539394
  H        52.2650250574       18.4314263251        3.6776222743
  H        49.2547575815       16.4765220678        3.5845106965
  H        10.1503466830       15.7982223059       12.2926215347
  H        50.8501378238       17.6927266085        3.9539105967
  H        10.0461585936       17.3945923415       12.0519293877
  H        20.2149635542        0.0023103900       12.0419477581
  H        39.1837464897       36.1243727361        3.6863411634
 Ni        30.6100303257       17.6176336877        2.9081239932
 Ni        30.8641140844       16.3959358208        0.0041636829
 Ni        29.6742883610       18.3123198822        0.0073374423
 Ni        29.4963533381       16.9053500881       14.2405347288
  O        10.6499627088       14.3651406843        5.4858171943
  O        12.6131300448       14.6574853320        6.5839245411
  O        49.1478572585       16.8458450264        7.9897505418
  O        50.3501434511       20.9361732717        5.6481627240
  O        48.3485000379       20.5933238810        6.6659291890
  O        11.0513483583       17.0538577042        6.5007878566
  O        50.3209919063       20.8816784411       10.4069020109
  O        48.3467146661       20.5867444628        9.3271559456
  O        49.5436747960       18.2483650489       10.0682977056
  O        12.3591886901       18.6246511950        7.9997627110
  O        48.6932220059       14.1485962882        6.7513003386
  O         8.2098816175       14.2104550674        9.3225637654
  O        10.7352686322       14.5067824763       10.6643050222
  O        12.5717510316       14.5827915275        9.3285833518
  O        22.8442381043        2.0420702249        5.4874362352
  O        21.6057993729        3.5922868534        6.5893023270
  O        42.0580740792       34.1373855611        7.9790124638
  O        37.9811871672       33.1362502049        5.5723277171
  O        39.2172802260       31.5750024341        6.6657292536
  O        20.3084915599        1.0398922171        6.5022044885
  O        38.0242865447       33.1845000833       10.4159176256
  O        39.2188213620       31.5832113150        9.3270740342
  O        40.6521942946       33.7692850399       10.0601262851
  O        18.2559512460        1.3763051029        7.9967953270
  O        44.6222162880       35.1005338846        6.7587941457
  O        24.2054053998        0.0000014719        9.3207719385
  O        22.7532893951        2.0575699325       10.5839044886
  O        21.6253386418        3.5968889541        9.3444130443
  O        27.4535829646       18.6924024285        5.4915033391
  O        26.6907362082       16.9145353945        6.6716260490
  O        30.6324468200       19.3499238243        8.0543216290
  O        33.5910336294       16.2715540780        5.6753123621
  O        34.2698620601       18.1681381450        6.7392184255
  O        29.5381381053       17.0063790271        6.5840317122
  O        33.5542787117       16.3352545804       10.4901597350
  O        34.2676305770       18.1868699080        9.3978532072
  O        31.6308131508       18.3081778090       10.1727015719
  O        30.2919209616       15.1033200074        8.0906977286
  O        28.5455214191       21.0299068232        6.7570995590
  O        28.5091323340       20.9575175954        9.3185424198
  O        27.5025747447       18.6169629442       10.6711307017
  O        26.6893694220       16.9178762030        9.4073079073
  O        13.1481907511       18.6936670109       10.5864012094
  O        13.9191847006       16.9162916431        9.4049444120
  O        50.5962396023       19.3503174662        8.0208941811
  O        47.6823742418       16.3272299426       10.4174712015
  O        46.9516097000       18.1760471871        9.3245010831
  O        11.0694042091       17.0156853532        9.4895488154
  O        47.6755208733       16.3358374177        5.6528393066
  O        46.9265149196       18.2359703306        6.6640782368
  O        49.5685980770       18.3177774195        5.9822947607
  O        10.3188226870       15.1001168117        7.9971097149
  O        52.6707559651       21.0279876023        9.2418169368
  O        12.1468418527       20.8913527689        6.6733286422
  O        13.1049461827       18.6142434739        5.3261391665
  O        13.9557173635       16.9867133113        6.6649861913
  O        29.9574185666       14.5097301083       10.7447849751
  O        28.0741279458       14.6544560126        9.4901973489
  O        32.0738100924       16.8498379111        8.0794384255
  O        30.9717189596       20.9543477350       10.4072744518
  O        32.9484320902       20.5946521626        9.3327011139
  O        29.5596196067       17.0757465554        9.5763073242
  O        30.8511422521       20.8800459627        5.6572377645
  O        32.8685698794       20.5829503709        6.6676836907
  O        31.6668518913       18.2470982082        5.9974625237
  O        28.2323068929       18.6699936464        8.0633414099
  O        32.4883295103       14.2114716082        9.3213772805
  O        32.4073784166       14.2122163274        6.8277098692
  O        29.9122240127       14.4293183027        5.4922880434
  O        28.0308916868       14.5856754451        6.7500320872
  O        17.8892250784        1.9665680744       10.6627499935
  O        18.9562851424        3.5271414771        9.4079900491
  O        39.1685170252       34.1386645387        7.9971379481
  O        43.2801669643       33.0589354728       10.3317228579
  O        42.0344036516       31.5064472824        9.2415817009
  O        20.3176210645        1.0367242893        9.4800537692
  O        43.2760850659       33.1825601342        5.5748825272
  O        42.0052224722       31.5841023625        6.5829643470
  O        40.5788551948       33.7749535995        5.9358165539
  O        22.3674075034        1.3848196756        7.9980933411
  O        36.6728600797       35.0996793273        9.2332951991
  O        16.4457299539        0.0641984993        6.6682900425
  O        17.9364579712        2.0432597948        5.3264738526
  O        18.9191468128        3.5931117480        6.6659605272
  O        29.6558381728       18.6892952030        4.1547337944
  O        29.5750800683       19.5624244520       12.0157979553
  O        31.3438395704       16.3412303039        4.1721664221
  O        31.6421413033       16.1155966190       12.0766633827
  O        31.7544631375       16.6281703801        1.6439196473
  O        30.5449603999       15.3785554213       14.3183520577
  O        28.6823925719       18.6050471391       14.2361201000
  O        39.4568059054       35.2437504896        4.0020064148
  O        19.1415001036        0.0045443658       11.9904876825
  O        41.9694159155       35.1725665011        4.0870745710
  O        21.6912564001       -0.0693599322       11.8959355884
  O        51.3649921065       18.6143595646        4.0053042570
  O        10.7511043717       18.7471623149       11.9050429077
  O        50.0791935745       16.4127109268        4.0917868494
  O         9.5244277148       16.4830931056       11.9912021229
 Zr         9.2973724926       16.0527186806        6.1823328916
 Zr        49.8368310626       16.0067855158        9.7464204677
 Zr        22.0733356396        0.0302671052        6.1889066156
 Zr        42.4610175041       35.1540612936        9.8010590149
 Zr        29.5664606384       19.0402218121        6.2514769787
 Zr        29.5345998680       19.1911946496        9.8040386393
 Zr        11.0385587803       19.0519471937        9.8280488341
 Zr        11.0439848820       19.1549568491        6.2511433360
 Zr        31.3200182956       16.0784067867        9.8290913990
 Zr        31.3628709328       15.9854750840        6.2515266605
 Zr        18.6013309932       -0.0011413547        9.7633623448
 Zr        18.5068930253       -0.0073044367        6.2136001137
 Zr        12.3023511463       16.3233849588        7.9907860822
 Zr        48.6172052614       18.8331295824        8.0101764971
 Zr        20.3160020997        2.4744392293        7.9909603130
 Zr        40.6434175110       32.6873645203        7.9778673874
 Zr        28.3152567945       16.3136398021        8.0699913090
 Zr        32.6082795277       18.8232816037        8.0273164458
  H        29.8247848198       18.3275293781        1.6242890404
  H        30.2374050610       20.2260518767       12.2715814497
  H        32.5911524592       16.1916949928       12.2778920249
