     566
 i =      139, E =     -4712.2156004270
  C        11.8584804235       14.0533864694        5.7415626281
  C        12.4557750085       12.8902799421        5.0233569880
  C        11.7041315485       12.1717522451        4.0813434528
  C        12.2803401692       11.1094446332        3.3890096783
  C        13.6207206940       10.7391037273        3.6170555356
  C        14.3537838694       11.4422183341        4.5909488956
  C        13.7810551006       12.5072619394        5.2824802123
  C        14.2601577550        9.6484248997        2.8436122792
  C        14.2553329701        9.6563039528        1.4219054763
  C        13.7421807861       10.7584188933        0.6679803277
  C        49.1265321503       21.2334596021        5.8797886080
  C        48.5496995272       22.4012342366        5.1526638858
  C        49.2996792654       23.0684550621        4.1715501645
  C        48.7327109203       24.1075020872        3.4382819566
  C        47.4021898008       24.5091894291        3.6669669526
  C        46.6712887111       23.8604254203        4.6805989574
  C        47.2337750861       22.8155968780        5.4100192855
  C        46.7719571044       25.5868319496        2.8696570240
  C        46.7610506781       25.5572432858        1.4478991257
  C        47.2609706091       24.4421490141        0.7044010093
  C        14.8592117972        8.5699442046        0.7086167021
  C        14.8909887019        8.5964750017        3.5202263958
  C        49.1129524366       21.2035392388       10.1453633925
  C        48.5276189930       22.3648991916       10.8723971999
  C        49.2667983419       23.0255363330       11.8654139293
  C        48.6904395440       24.0600565323       12.5968696637
  C        47.3600539797       24.4568837992       12.3585365277
  C        46.6397064035       23.8120761205       11.3349010204
  C        47.2132850873       22.7762032615       10.6031037958
  C        46.7215862038       25.5317976830       13.1495752595
  C        46.7333401752       25.5281213165       14.5712722006
  C        47.2487323251       24.4288789595       15.3276395804
  C        40.6225141194       17.0911121350       15.3062987201
  C        40.6290673482       17.1165540321       12.4960399862
  C        11.8825205006       14.0862880606       10.2854574741
  C        12.4714726472       12.9102081419       10.9895091689
  C        11.7139911503       12.1775788617       11.9161108816
  C        12.2803084908       11.0949847374       12.5845319911
  C        13.6188604015       10.7205136954       12.3522813827
  C        14.3566894109       11.4353734841       11.3908180857
  C        13.7915316774       12.5166714151       10.7181227383
  C        14.2523839447        9.6237853506       13.1227747354
  C        14.2512169868        9.6438303721       14.5446248783
  C        13.7414950632       10.7528317379       15.2917248140
  C        22.5129370514        3.2420987645        5.7562780586
  C        23.2333477146        4.3443937074        5.0612885473
  C        24.2361036361        4.0589181158        4.1231753499
  C        24.8690886781        5.0952032872        3.4427643920
  C        24.5135500007        6.4370501692        3.6817498667
  C        23.5394787966        6.7143094813        4.6576763810
  C        22.9020482143        5.6798181549        5.3367016537
  C        25.1214109239        7.5405640613        2.9061435784
  C        25.0889338048        7.5347236483        1.4854738879
  C        24.3856248826        6.5344471814        0.7422063671
  C        38.3012071096       31.9255200430        5.8470250180
  C        37.5692107791       30.8355132935        5.1360426242
  C        36.6079761075       31.1404624928        4.1595748755
  C        35.9857729302       30.1221110388        3.4415745273
  C        36.3078683641       28.7705443346        3.6763536010
  C        37.2401566421       28.4731436782        4.6888517153
  C        37.8665888567       29.4903816301        5.4059495111
  C        35.6990339040       27.6803975750        2.8774009877
  C        35.7289875850       27.6963534124        1.4550442709
  C        36.4354707153       28.6984658504        0.7181878115
  C        25.7070737014        8.6068039006        0.7654434650
  C        25.7223233439        8.6118406999        3.5769335440
  C        38.3270584512       31.9616983395       10.1555102856
  C        37.6012719865       30.8888773126       10.8946165789
  C        36.6696733329       31.1983750403       11.8975722405
  C        36.0543449501       30.1806204275       12.6239493906
  C        36.3559802735       28.8271897110       12.3717133879
  C        37.2652718227       28.5277474155       11.3385688526
  C        37.8825662291       29.5420272823       10.6131450605
  C        35.7434325125       27.7287939438       13.1543492642
  C        35.7511682598       27.7215634315       14.5766967662
  C        36.4455734478       28.7108820693       15.3413090446
  C        46.1353214060       26.6207411374       15.2814121006
  C        46.0875746243       26.5801198221       12.4735260847
  C        22.4602420523        3.2546820361       10.2588177063
  C        23.1539163410        4.3607654740       10.9855535032
  C        24.1538873708        4.0698550799       11.9272154570
  C        24.7821538309        5.0963038335       12.6281498543
  C        24.4305074612        6.4432834793       12.4097288969
  C        23.4532735180        6.7274629713       11.4369229373
  C        22.8203727796        5.7012740196       10.7364187175
  C        25.0625438926        7.5392553549       13.1854038416
  C        25.0592169519        7.5334395496       14.6082186639
  C        24.3699226343        6.5347281382       15.3655567681
  C        26.5637417034       17.8431560539        5.7872611041
  C        25.2596205091       17.9132004358        5.0719089992
  C        25.0175359652       18.9104133211        4.1138546445
  C        23.8105852075       18.9381819825        3.4199541385
  C        22.8130254799       17.9726432066        3.6630793054
  C        23.0498782340       17.0012696567        4.6539192506
  C        24.2581528263       16.9672728280        5.3455618617
  C        21.5484593266       17.9608077751        2.8901740008
  C        21.5566388615       17.9437477486        1.4681714742
  C        22.7656340000       17.8207453426        0.7133595671
  C        34.4986083544       17.2280565646        5.9919328352
  C        35.7700725142       17.1803189430        5.2179266248
  C        35.9653059917       16.1915622754        4.2405840210
  C        37.1316958385       16.1740099563        3.4809701529
  C        38.1367870802       17.1396498185        3.6827313166
  C        37.9421389489       18.1128148323        4.6815649480
  C        36.7707894390       18.1398569430        5.4344170506
  C        39.3851895502       17.1336327333        2.8864846768
  C        39.3739760225       17.1251703908        1.4647624053
  C        38.1629522610       17.2320427511        0.7116111750
  C        20.3128192368       17.9617607197        0.7555748490
  C        20.3223561642       17.9564031934        3.5682147185
  C        34.4191095820       17.2132715347       10.2270874197
  C        35.7273762560       17.1261586097       10.9338063388
  C        35.9525535312       16.1402203864       11.9069454420
  C        37.1483651694       16.1164354221       12.6187279102
  C        38.1489215683       17.0782837912       12.3782914095
  C        37.9320451957       18.0358984240       11.3695892263
  C        36.7352418759       18.0639703487       10.6593634089
  C        39.4007141582       17.0983487225       13.1663748416
  C        39.3822000623       17.1087992493       14.5881100413
  C        38.1670180683       17.2229307681       15.3345709839
  C        35.1182104468       26.6428668572       15.2792889021
  C        35.1524681821       26.6591732578       12.4698037932
  C        26.5593305594       17.8446555855       10.3321214390
  C        25.2479042007       17.8948243176       11.0323314055
  C        24.9881874080       18.9027556158       11.9735940133
  C        23.7709017291       18.9319766470       12.6466752881
  C        22.7859993735       17.9545901874       12.4003882231
  C        23.0400249286       16.9729014493       11.4257695256
  C        24.2581242762       16.9401088382       10.7515748705
  C        21.5222797278       17.9385085044       13.1703449805
  C        21.5424931790       17.9307328936       14.5914706553
  C        22.7585004639       17.8142492394       15.3369196478
  C        14.0452025727       17.8316664839       10.2849365361
  C        15.3509371131       17.8963081922       11.0043700894
  C        15.6074130328       18.9095253285       11.9409145931
  C        16.8170159481       18.9374824578       12.6313363254
  C        17.8018243993       17.9549733966       12.4061201866
  C        17.5509849944       16.9667005458       11.4360334551
  C        16.3408033327       16.9344140366       10.7468883658
  C        19.0680797121       17.9428373835       13.1770907751
  C        19.0611774035       17.9413852919       14.5989788378
  C        17.8509164808       17.8411448935       15.3546896428
  C        46.8021187107       17.2162402246       10.1557660059
  C        45.5077246386       17.1469603869       10.8938364232
  C        45.2989227962       16.1615673088       11.8712348291
  C        44.1143133919       16.1362857747       12.6023970966
  C        43.1080277234       17.0964094884       12.3790121429
  C        43.3130103387       18.0600339773       11.3730221546
  C        44.4984754266       18.0890643640       10.6424269577
  C        41.8557957034       17.1035266879       13.1699537187
  C        41.8665335593       17.1036856774       14.5922661821
  C        43.0783423398       17.2009502737       15.3457964097
  C        20.3051203912       17.9545571815       15.3113827794
  C        20.2934490970       17.9241450736       12.4988333835
  C        46.7865030484       17.2333828303        5.8859686808
  C        45.4870104056       17.1325517564        5.1636011630
  C        45.2692235287       16.1336563331        4.2024752169
  C        44.0836540050       16.1089583693        3.4722697087
  C        43.0865495014       17.0806565958        3.6854943170
  C        43.2959001377       18.0512098862        4.6831416468
  C        44.4821910243       18.0818047559        5.4090399142
  C        41.8392149836       17.1004339825        2.8908329677
  C        41.8582428943       17.1008064652        1.4695892568
  C        43.0744440614       17.1967301501        0.7228687193
  C        46.1530672068       26.6371436432        0.7261608497
  C        46.1619813049       26.6559293301        3.5357953982
  C        14.0399883201       17.8302009056        5.7075929823
  C        15.3548843685       17.9043666951        5.0098745900
  C        15.6216393064       18.9277616899        4.0885538561
  C        16.8461721394       18.9699287096        3.4272085826
  C        17.8281104199       17.9877852355        3.6635430690
  C        17.5671154017       16.9906572992        4.6203802367
  C        16.3446592781       16.9481367391        5.2854634956
  C        19.0941990559       17.9727990540        2.8962392188
  C        19.0750363391       17.9561179351        1.4753417088
  C        17.8577118223       17.8476931160        0.7309954596
  C        28.7222282452       14.1100482220       10.4087098221
  C        28.1361928585       12.9250643395       11.0843948166
  C        28.8648208282       12.2210873698       12.0546382651
  C        28.2865591072       11.1353582709       12.7050684854
  C        26.9657543578       10.7364648705       12.4148372073
  C        26.2626160575       11.4201687361       11.4064207281
  C        26.8393444673       12.5026589268       10.7497516706
  C        26.3085898910        9.6553221488       13.1805714690
  C        26.2977872650        9.6847386723       14.6018760380
  C        26.7921277905       10.8024051699       15.3471260910
  C        32.1605983730       21.2735961321       10.0727159331
  C        32.7540025359       22.4260096648       10.8117510175
  C        32.0008834002       23.0976718352       11.7875651809
  C        32.5709219562       24.1259716985       12.5331269641
  C        33.9078909769       24.5152029511       12.3211068155
  C        34.6444787797       23.8598848316       11.3158331482
  C        34.0792778876       22.8229074466       10.5761262752
  C        34.5345721781       25.5893205479       13.1272093230
  C        34.5250285434       25.5604515894       14.5492681304
  C        34.0164400121       24.4447674855       15.2858788604
  C        25.6958284762        8.6029338017       15.3209656073
  C        25.6749707549        8.6017842964       12.5086284034
  C        32.0916558242       21.1904396261        5.8376232646
  C        32.6668095405       22.3484200972        5.0965284293
  C        31.9408079709       22.9947460645        4.0837547448
  C        32.5164816686       24.0386008376        3.3625907514
  C        33.8332342714       24.4642350507        3.6298831877
  C        34.5397391199       23.8311482389        4.6712632084
  C        33.9686869940       22.7857769467        5.3912814252
  C        34.4760292733       25.5480196106        2.8500684587
  C        34.4962098614       25.5386406197        1.4272784012
  C        34.0032595865       24.4342574631        0.6629111594
  C        40.6178298129       17.0945208115        0.7511548593
  C        40.6112783876       17.1371554767        3.5606818822
  C        28.7694332240       14.0128998893        5.8695035385
  C        28.1589087822       12.8701718227        5.1332841063
  C        28.8861638340       12.2018186029        4.1359911096
  C        28.3012390033       11.1606581926        3.4201803288
  C        26.9751510282       10.7592830916        3.6792298358
  C        26.2665382994       11.4142960205        4.7044036650
  C        26.8472723016       12.4595817599        5.4188470246
  C        26.3301500852        9.6767021364        2.8998339234
  C        26.3108924624        9.6950551360        1.4780749750
  C        26.7980379295       10.8079289849        0.7234694351
  C        18.1352932333        3.1808680409       10.3171420466
  C        17.4057356173        4.2780235504       11.0157328589
  C        16.3898724465        3.9994052719       11.9430038505
  C        15.7418548480        5.0392074340       12.6065061711
  C        16.0936190156        6.3829902039       12.3670279025
  C        17.0831726132        6.6527794382       11.4035186285
  C        17.7325518849        5.6156063954       10.7384641579
  C        15.4690315893        7.4905471761       13.1300907016
  C        15.4843347569        7.4898916642       14.5518096767
  C        16.1860077757        6.4963468930       15.3049589219
  C        42.9456883991       31.8594387485       10.0727753971
  C        43.6460106349       30.7717339761       10.8167467252
  C        44.5916683130       31.0930673560       11.8026870630
  C        45.1973461531       30.0875284418       12.5503755642
  C        44.8707595823       28.7344922402       12.3356327396
  C        43.9447792231       28.4201342253       11.3225763273
  C        43.3359854456       29.4252742880       10.5745102478
  C        45.4883594161       27.6552129340       13.1388186047
  C        45.4925841817       27.6808569139       14.5605080403
  C        44.8055103820       28.6889160230       15.3071227651
  C        14.8553287089        8.5623655899       15.2641740077
  C        14.8736006805        8.5622233239       12.4515074879
  C        42.9463761908       31.9614460396        5.8089668797
  C        43.6916028957       30.8852772738        5.0955428372
  C        44.6563742182       31.1911873058        4.1234253054
  C        45.2777964716       30.1716004248        3.4056183878
  C        44.9537049304       28.8213229731        3.6430069865
  C        44.0199849372       28.5236414062        4.6535519374
  C        43.3918160595       29.5404107550        5.3658063935
  C        45.5627343479       27.7239382591        2.8577438361
  C        45.5330854697       27.7172894520        1.4364495754
  C        44.8267859882       28.7075469753        0.6835167599
  C        35.1053701585       26.6310914348        0.7249685894
  C        35.0894243726       26.6053412548        3.5350946565
  C        18.1485404507        3.2467542110        5.7066430977
  C        17.4297164812        4.3435446656        4.9973321940
  C        16.4144522861        4.0521311633        4.0738771106
  C        15.7659596308        5.0826624056        3.3984814858
  C        16.1204977387        6.4279452443        3.6210821966
  C        17.1119485955        6.7114694253        4.5782171443
  C        17.7597812802        5.6826578276        5.2580010014
  C        15.4898354607        7.5235636222        2.8486288465
  C        15.4955779970        7.5069064521        1.4274859947
  C        16.1923272657        6.5052103044        0.6807735244
  H        10.6721576856       12.4662655000        3.9040465701
  H        11.6940420205       10.5512543106        2.6622544521
  H        15.3906302388       11.1671445101        4.7730147419
  H        14.3504398954       13.0700357737        6.0183205391
  H        13.3752808462       11.6306050938        1.2012596964
  H        50.3223731658       22.7483921770        3.9867903437
  H        49.3191223848       24.6227023929        2.6806041050
  H        45.6418146042       24.1612482865        4.8638043057
  H        46.6628079417       22.2904693584        6.1722289135
  H        47.6294004378       23.5757094204        1.2460605816
  H        14.8714140146        8.5877109122        4.6085335877
  H        50.2867964500       22.7026050207       12.0604262024
  H        49.2687508609       24.5754580587       13.3604681598
  H        45.6103221712       24.1093595972       11.1457867971
  H        46.6524699050       22.2540944763        9.8314976307
  H        47.6074298800       23.5517261393       14.7967437561
  H        40.6307456730       17.0858583769       11.4080931309
  H        48.6871162469       14.0949696827        7.8000557102
  H        10.6807266687       12.4671760436       12.0938650508
  H        11.6885085006       10.5250330548       13.2975778079
  H        15.3918737803       11.1568590504       11.2044429219
  H        14.3638057451       13.0854781446        9.9891066213
  H        13.3746818208       11.6214670332       14.7531148871
  H        47.9300387122       14.2186019555        9.7106581275
  H        47.7799619688       14.3736940346        6.4954175111
  H        49.0823620543       18.5518488078       10.8670660896
  H        10.4159706584       14.1342623398        7.9988214860
  H        24.4957753287        3.0191144521        3.9376341926
  H        25.6465064202        4.8759744145        2.7140915196
  H        23.2594190849        7.7485747241        4.8463437881
  H        22.1270960563        5.8820395722        6.0719640915
  H        23.8281077146        5.7763977372        1.2845007496
  H        36.3722563484       32.1841027080        3.9649363045
  H        35.2405681673       30.3656164609        2.6874231340
  H        37.4988551775       27.4335663104        4.8794181387
  H        38.6108259052       29.2650088180        6.1662328714
  H        37.0013918960       29.4473715972        1.2645741861
  H        25.7630936955        8.5905074039        4.6644115018
  H        36.4484057081       32.2428294076       12.1053909875
  H        35.3266394491       30.4269417949       13.3940349110
  H        37.5105147919       27.4871646844       11.1365425449
  H        38.6067639498       29.3148719838        9.8345963134
  H        37.0203528136       29.4688911530       14.8170140147
  H        46.1089065110       26.5875215795       11.3854891190
  H        44.6682251083       35.1161032315        7.8139858363
  H        24.4296192332        3.0305782273       12.0909681297
  H        25.5617431462        4.8637069202       13.3504304529
  H        23.1702548702        7.7630982038       11.2598638933
  H        22.0501977573        5.9178072019        9.9996892901
  H        23.7996150030        5.7775212453       14.8353508948
  H        44.9538457624       34.3902120072        9.6949287350
  H        44.9016612349       34.2066503319        6.4907650043
  H        40.6651536152       33.2083030296       10.8526031079
  H        23.1505002467        1.9571596843        8.0064042285
  H        25.7859627268       19.6565710865        3.9257986938
  H        23.6257751980       19.7150713934        2.6812666985
  H        22.2890668646       16.2481309223        4.8482716309
  H        24.4557589583       16.2009715142        6.0911929588
  H        23.7049742661       17.6974291733        1.2446888322
  H        35.1866312926       15.4491160632        4.0831292081
  H        37.2811469960       15.4012572983        2.7300420755
  H        38.7093610296       18.8680946066        4.8388499445
  H        36.6042961094       18.9057570086        6.1883329537
  H        37.2246152125       17.3547143701        1.2451418075
  H        20.3243798916       17.9918229736        4.6561652303
  H        35.1753208668       15.4053805937       12.1028076305
  H        37.3203331802       15.3492870966       13.3705037010
  H        38.6983534600       18.7841867529       11.1780758122
  H        36.5474366248       18.8213388279        9.9019702584
  H        37.2312309372       17.3389835140       14.7954256046
  H        35.1272511368       26.6858747237       11.3820479066
  H        28.4993197536       21.0642750310        7.9369400201
  H        25.7523901436       19.6541722651       12.1591186828
  H        23.5673985720       19.7157419158       13.3730702958
  H        22.2866566976       16.2122075465       11.2319241381
  H        24.4713492037       16.1688107532       10.0156137874
  H        23.6923798416       17.6859043756       14.7976571312
  H        29.0216164090       21.7147120959        9.6409742366
  H        29.1065084027       21.7766908107        6.5479794739
  H        31.9549071518       18.6023886941       11.0188562505
  H        27.3780601182       18.9903716153        7.9572577553
  H        14.8479921860       19.6690365801       12.1125017473
  H        17.0140306649       19.7277587047       13.3525589129
  H        18.3027016814       16.2011952933       11.2548275450
  H        16.1329302023       16.1587511359       10.0137039994
  H        16.9107259285       17.7261681056       14.8232472318
  H        46.0825472728       15.4295864677       12.0520947160
  H        43.9542031204       15.3653110225       13.3529359190
  H        42.5443647219       18.8093582911       11.1953572842
  H        44.6728680875       18.8480626276        9.8833403950
  H        44.0180880925       17.3119302705       14.8124608963
  H        20.2908488403       17.9519329016       11.4106654263
  H        46.0442027105       15.3902191405        4.0303770447
  H        43.9166788213       15.3325439020        2.7288426934
  H        42.5314573539       18.8064256040        4.8535595694
  H        44.6646169615       18.8491921781        6.1572961615
  H        44.0113421954       17.3034428736        1.2619743791
  H        46.1987335133       26.6824527777        4.6232453526
  H        52.7410173694       21.0625781420        8.1945829246
  H        14.8599313836       19.6832514507        3.9093266771
  H        17.0557883978       19.7662071520        2.7162489893
  H        18.3187291351       16.2263073807        4.8065521453
  H        16.1251234244       16.1676997825        6.0099573728
  H        16.9226186916       17.7376542669        1.2719764024
  H        52.3220037091       21.6735017031        6.2948726092
  H        52.0132974306       21.7023436456        9.4955221438
  H        49.0673313273       18.6082019691        5.2041394196
  H        13.2468995028       19.0167519986        7.9764771112
  H        29.8762264027       12.5459711339       12.2885238429
  H        28.8509865714       10.5863443583       13.4554484222
  H        25.2425906166       11.1202639862       11.1755893841
  H        26.2921045496       13.0531297629        9.9887676475
  H        27.1404804300       11.6789258269       14.8090647712
  H        30.9729931470       22.7874096125       11.9594339815
  H        31.9814153386       24.6428143515       13.2872778605
  H        35.6797187606       24.1490288417       11.1466829738
  H        34.6558097843       22.2925896229        9.8217240727
  H        33.6610483165       23.5755503609       14.7395271040
  H        25.7043274973        8.5814874520       11.4206584469
  H        30.9302988902       22.6582243879        3.8638403601
  H        31.9448615898       24.5395601094        2.5844627615
  H        35.5588389853       24.1463210584        4.8855507172
  H        34.5218818297       22.2775361567        6.1774696205
  H        33.6393072247       23.5552969923        1.1871534172
  H        40.6087349865       17.1143171902        4.6487524153
  H        32.5090475189       14.1029346309        8.3944994214
  H        29.9077116382       12.5168083907        3.9359764637
  H        28.8713303751       10.6404730155        2.6535899113
  H        25.2405673157       11.1165782897        4.9106840098
  H        26.2937546148       12.9844369211        6.1937205170
  H        27.1517061435       11.6874290551        1.2540086444
  H        33.3714349820       14.1013189184        6.5182790615
  H        33.3878781246       14.4703684064        9.6859219674
  H        32.0762335511       18.3573626560        5.1348166750
  H        30.1349414201       14.1990822714        8.1414786029
  H        16.1179596219        2.9628312047       12.1292347854
  H        14.9522890501        4.8196138868       13.3219755252
  H        17.3655169567        7.6857178135       11.2106222540
  H        18.5147233743        5.8184141776       10.0108024826
  H        16.7525630774        5.7390275860       14.7714278114
  H        44.8280337169       32.1401480274       11.9767628697
  H        45.9372922422       30.3412613344       13.3062486199
  H        43.6818933376       27.3780821953       11.1526392523
  H        42.5992136229       29.1899549565        9.8099864266
  H        44.2301463536       29.4366707198       14.7688076880
  H        14.8498090118        8.5453929699       11.3632878998
  H        44.9000994527       32.2338617354        3.9321731981
  H        46.0248240939       30.4127924747        2.6524901420
  H        43.7627183159       27.4839341205        4.8448331104
  H        42.6450845090       29.3176500716        6.1240379957
  H        44.2682722802       29.4704200835        1.2181191572
  H        35.0455596594       26.6172013240        4.6225946827
  H        36.6051346142       35.1339041131        8.1806976719
  H        16.1434742379        3.0125106706        3.9042354054
  H        14.9735864418        4.8556703668        2.6884939162
  H        17.3954047294        7.7469708672        4.7549859628
  H        18.5426867952        5.8932211383        5.9826974995
  H        16.7638430544        5.7550233210        1.2191985772
  H        36.2788674990       34.4817959652        6.2732800835
  H        36.3808820619       34.2092153507        9.4997941759
  H        40.5792029328       33.2018536541        5.1534146731
  H        17.4709548904        1.9473843688        7.9739145809
  H        29.2796900030       19.5883901152       12.4807146634
  H        28.8707413245       18.7461764178        3.6786327215
  H        31.8088334940       15.5811421177        3.7520566857
  H        32.1013851618       16.2941008581       12.6027633392
  H        28.2004011074       18.2335734095       14.4062341965
  H        32.4782878063       16.9675043548        1.4151318410
  H        18.8535378851        0.8687657047       12.3355159612
  H        40.5283531782       35.2292199034        3.9521073052
  H        42.3234046778       34.4184832502        3.5904669214
  H        22.0874046120        0.6923093895       12.3512113830
  H        11.5966650453       18.7128233078       12.3826718721
  H        52.2641791704       18.4312771653        3.6771401539
  H        49.2550862395       16.4765479348        3.5844635841
  H        10.1500795418       15.7982540179       12.2928210931
  H        50.8494649483       17.6924131536        3.9541055788
  H        10.0458999195       17.3946746047       12.0520254530
  H        20.2148169419        0.0019521427       12.0419684514
  H        39.1838548387       36.1248033028        3.6868013395
 Ni        30.6119901817       17.3296146056        2.8302323511
 Ni        30.8642401414       15.8548546002        0.3333909850
 Ni        29.9274784800       17.7280369543       -0.0838197106
 Ni        30.1867342139       17.6168186592       13.4046391087
  O        10.6497480203       14.3651593406        5.4857826504
  O        12.6130554359       14.6574105618        6.5838097810
  O        49.1479033520       16.8459391628        7.9898107332
  O        50.3500795492       20.9362669396        5.6482499344
  O        48.3484735193       20.5933108770        6.6659850340
  O        11.0511884239       17.0540155778        6.5006421891
  O        50.3207699754       20.8817128547       10.4068657581
  O        48.3466438946       20.5867397220        9.3271063708
  O        49.5434567892       18.2483840360       10.0683765216
  O        12.3586651699       18.6246016673        7.9997379156
  O        48.6932112128       14.1485813648        6.7513211055
  O         8.2098474942       14.2104184989        9.3225483365
  O        10.7349756670       14.5067130098       10.6643216779
  O        12.5716353397       14.5827003877        9.3286249776
  O        22.8441076084        2.0412354320        5.4880368031
  O        21.6050229514        3.5916208125        6.5903708955
  O        42.0578958289       34.1369940456        7.9789044876
  O        37.9811650076       33.1344302309        5.5717672721
  O        39.2172128794       31.5743830270        6.6654362995
  O        20.3081923526        1.0393162940        6.5020686407
  O        38.0247336507       33.1858796818       10.4151847796
  O        39.2186957292       31.5834629860        9.3267784513
  O        40.6522156288       33.7691424941       10.0600795336
  O        18.2558142808        1.3764634173        7.9967464259
  O        44.6222718922       35.1004834087        6.7587571561
  O        24.2054410435       -0.0000518947        9.3207611611
  O        22.7529075541        2.0564442119       10.5835274834
  O        21.6245697586        3.5960132036        9.3436425242
  O        27.4694217471       18.6996841449        5.4839700516
  O        26.6952948566       16.9185594806        6.6642033916
  O        30.6286755819       19.3353638097        7.9942865243
  O        33.6750151196       16.2637411179        5.8324871113
  O        34.3073356434       18.2433556398        6.7478364553
  O        29.4856766899       16.9313477140        6.4072952593
  O        33.5307605709       16.3283852256       10.5064213681
  O        34.2658977706       18.1747541377        9.4071277541
  O        31.6349115161       18.3271098623       10.1411501028
  O        30.2626132650       15.1619228209        8.1558312449
  O        28.5524326340       21.0268141836        6.8280803332
  O        28.5032369135       20.9584160436        9.3142648427
  O        27.4536802105       18.6853675156       10.6536348871
  O        26.6793874669       16.9357813464        9.4209196082
  O        13.1467044222       18.6937624080       10.5864499071
  O        13.9182593218       16.9161187110        9.4045067631
  O        50.5958704979       19.3503139222        8.0207717871
  O        47.6821658502       16.3270727805       10.4171134428
  O        46.9509792449       18.1758842869        9.3248903164
  O        11.0693638309       17.0156742002        9.4897481634
  O        47.6757097817       16.3356072322        5.6529678137
  O        46.9274635118       18.2358774418        6.6643265346
  O        49.5683934857       18.3177664951        5.9822720870
  O        10.3187644013       15.1001336130        7.9971292748
  O        52.6707031184       21.0279878458        9.2418176854
  O        12.1467850995       20.8913680492        6.6732924531
  O        13.1043649585       18.6144243338        5.3263103042
  O        13.9555976274       16.9867480123        6.6653148513
  O        29.8826070404       14.5078611819       10.7469052292
  O        27.9967684079       14.6531569807        9.4952912918
  O        32.0664072446       16.8523853798        8.1531555874
  O        30.9243782426       21.0263608061       10.2471627199
  O        32.9530332053       20.5906125178        9.3259270966
  O        29.5000065840       17.0767707832        9.5766582619
  O        30.8625268115       20.8743913026        5.5820999954
  O        32.8572165245       20.5915262321        6.6597653235
  O        31.6712964618       18.2341382141        6.0122387505
  O        28.2716615830       18.6124354094        7.9971315002
  O        32.4823939568       14.2171771666        9.4240006371
  O        32.4537962028       14.1352941994        6.8367064079
  O        29.9576172634       14.3587248013        5.5792456442
  O        28.0320048561       14.5897101709        6.7560919364
  O        17.8891965495        1.9665612402       10.6628428718
  O        18.9561868006        3.5271507211        9.4080756213
  O        39.1685811413       34.1387192306        7.9970767546
  O        43.2801728258       33.0588236863       10.3316766741
  O        42.0343425269       31.5064455441        9.2415236872
  O        20.3174060434        1.0362023094        9.4802821622
  O        43.2760997396       33.1823904538        5.5748836212
  O        42.0052286431       31.5840412537        6.5830074842
  O        40.5787173511       33.7747048848        5.9354219197
  O        22.3670910344        1.3843721680        7.9980664349
  O        36.6727385734       35.0998132508        9.2332571812
  O        16.4456498820        0.0639363184        6.6681045454
  O        17.9364017689        2.0431744001        5.3264326190
  O        18.9189920060        3.5931326352        6.6658920200
  O        29.7294114663       18.5407973950        4.0900115427
  O        29.8615273124       19.0464864301       11.9174179581
  O        31.3886155051       16.2610697719        4.3124938980
  O        31.2591516953       16.4887147720       12.1586590097
  O        31.8923074840       16.2609094755        1.7537692410
  O        29.0932197700       18.6206760248       14.5084016368
  O        39.4569992884       35.2440406421        4.0019616885
  O        19.1413643722        0.0043801065       11.9905430926
  O        41.9695446248       35.1726203074        4.0870772172
  O        21.6911922078       -0.0694343320       11.8959428624
  O        51.3643825461       18.6143401856        4.0052345677
  O        10.7509305221       18.7471942856       11.9050626559
  O        50.0795559354       16.4127591494        4.0917376929
  O         9.5242858965       16.4831332944       11.9912274866
 Zr         9.2965856194       16.0527411208        6.1823553687
 Zr        49.8360429927       16.0069113660        9.7466023181
 Zr        22.0730327251        0.0293629264        6.1891115782
 Zr        42.4608221777       35.1529766208        9.8008899504
 Zr        29.6132614603       19.1469997725        6.2130410657
 Zr        29.5499308733       19.1808113068        9.8482245586
 Zr        11.0372805093       19.0523332358        9.8277890083
 Zr        11.0430543243       19.1551364564        6.2512033262
 Zr        31.2784517736       16.1304609433       10.0048924812
 Zr        31.5115316424       15.9159606273        6.3793657582
 Zr        18.6010624630       -0.0016217236        9.7635336523
 Zr        18.5064242129       -0.0084948461        6.2134564545
 Zr        12.3008721256       16.3232375300        7.9904855619
 Zr        48.6160681166       18.8330734121        8.0105050364
 Zr        20.3149529464        2.4730500721        7.9908175570
 Zr        40.6427450632       32.6865391101        7.9778794058
 Zr        28.2598087918       16.2949916919        8.1377722757
 Zr        32.6211400551       18.8320472516        8.0546611560
  H        29.9870370283       18.0388073117        1.5428044740
  H        29.1175503192       16.6555771909        5.5435155010
