     571
 i =      153, E =     -4761.5158766305
  C        11.8587518840       14.0534168253        5.7414449083
  C        12.4561539541       12.8905523430        5.0229712383
  C        11.7042835584       12.1715713681        4.0814635335
  C        12.2804740352       11.1093238734        3.3890188820
  C        13.6210955386       10.7394455685        3.6164581454
  C        14.3544759888       11.4430870293        4.5897429399
  C        13.7817481209       12.5080948229        5.2813615070
  C        14.2603059485        9.6485127894        2.8431047168
  C        14.2549031652        9.6558298419        1.4213760118
  C        13.7414885452       10.7576826973        0.6672526304
  C        49.1269027198       21.2331785490        5.8795521435
  C        48.5501462371       22.4011945989        5.1525789523
  C        49.3001383149       23.0684482732        4.1715052283
  C        48.7332129186       24.1076160876        3.4383338703
  C        47.4027119011       24.5093417008        3.6670371362
  C        46.6718379508       23.8605672146        4.6806779853
  C        47.2342551271       22.8156120532        5.4099890161
  C        46.7724029506       25.5870297725        2.8697910305
  C        46.7612036092       25.5573664907        1.4480253385
  C        47.2611600756       24.4423238455        0.7044651457
  C        14.8584714151        8.5691986024        0.7082001701
  C        14.8914166394        8.5967973054        3.5198391648
  C        49.1129147142       21.2033869642       10.1452238604
  C        48.5274263832       22.3647838851       10.8723724748
  C        49.2665788133       23.0254774479       11.8653619036
  C        48.6902490451       24.0600659733       12.5967980343
  C        47.3598553545       24.4569066640       12.3585422371
  C        46.6395296929       23.8120442458       11.3349139746
  C        47.2130980905       22.7761191604       10.6031341277
  C        46.7213761552       25.5318633467       13.1496186911
  C        46.7331577490       25.5281744993       14.5713404276
  C        47.2487478767       24.4290107866       15.3277003562
  C        40.6301196569       17.0969678327       15.3240643665
  C        40.6611750825       17.1683065075       12.5152762685
  C        11.8828714966       14.0861146428       10.2853164072
  C        12.4714722132       12.9097156793       10.9891156062
  C        11.7135024418       12.1768108745       11.9151367400
  C        12.2793725698       11.0938889702       12.5834112682
  C        13.6179664274       10.7192856932       12.3515840180
  C        14.3563211135       11.4344473044       11.3907400401
  C        13.7916149202       12.5161105030       10.7181898174
  C        14.2510546293        9.6222729125       13.1221564725
  C        14.2500126157        9.6425420291       14.5440276657
  C        13.7404625421       10.7517191659       15.2909819980
  C        22.5207563846        3.2479197992        5.7554932120
  C        23.2533327820        4.3514038592        5.0661747468
  C        24.2625363115        4.0654468637        4.1338891891
  C        24.9076696822        5.0996883292        3.4592085668
  C        24.5619137228        6.4457861520        3.6939802694
  C        23.5819805819        6.7234299685        4.6651146744
  C        22.9322459253        5.6907012249        5.3388691300
  C        25.1792806281        7.5466725391        2.9135859855
  C        25.1402888849        7.5366237616        1.4912949463
  C        24.4285737487        6.5382288784        0.7526318025
  C        38.2978582740       31.9285801658        5.8528104606
  C        37.5554723341       30.8407194164        5.1520014535
  C        36.5851611371       31.1499149587        4.1863567398
  C        35.9532588336       30.1336459134        3.4752530482
  C        36.2768398885       28.7822603762        3.7063639348
  C        37.2167438830       28.4801940612        4.7097791391
  C        37.8522739815       29.4956030285        5.4207778248
  C        35.6639109824       27.6974178539        2.9058733684
  C        35.6951034173       27.7203639816        1.4840531360
  C        36.4074668477       28.7225010440        0.7523661992
  C        25.7594952783        8.6035275066        0.7626745246
  C        25.7913606780        8.6199104553        3.5752606098
  C        38.3301382873       31.9640793896       10.1597593732
  C        37.6064046036       30.8973627407       10.9094389051
  C        36.6759963944       31.2191401427       11.9097184627
  C        36.0560346289       30.2105463178       12.6445779103
  C        36.3516016116       28.8543822236       12.4021702013
  C        37.2634257050       28.5423261438       11.3750338074
  C        37.8856741966       29.5477235914       10.6414606254
  C        35.7253383877       27.7633589041       13.1838963140
  C        35.7263853677       27.7543129430       14.6061045125
  C        36.4220444843       28.7388274225       15.3757193418
  C        46.1351286756       26.6207643385       15.2815541619
  C        46.0873656511       26.5802609635       12.4736478479
  C        22.4608322638        3.2559570534       10.2611286344
  C        23.1542215864        4.3616502060       10.9903598833
  C        24.1537113838        4.0702696172       11.9327267508
  C        24.7842058049        5.0959428363       12.6333267559
  C        24.4364344812        6.4442481019       12.4148296106
  C        23.4583272405        6.7286965352       11.4425568511
  C        22.8231500114        5.7032608192       10.7423759141
  C        25.0764998938        7.5395922680       13.1864389300
  C        25.0878175925        7.5320298731       14.6099060824
  C        24.4021254562        6.5368517022       15.3758355139
  C        26.6520515087       17.7806454004        5.6973741404
  C        25.3431408607       17.8325264424        4.9816667480
  C        25.0684778419       18.8471017670        4.0510521332
  C        23.8416854653       18.8837032667        3.3915369041
  C        22.8550928584       17.9075020998        3.6382408029
  C        23.1265295665       16.9146369027        4.5982922562
  C        24.3529338086       16.8754476248        5.2592201523
  C        21.5752082526       17.9054444259        2.8862828016
  C        21.5735693425       17.8927938179        1.4641380869
  C        22.7778664497       17.7654092503        0.7022193158
  C        34.3736748268       17.2094151817        5.8401366373
  C        35.6686089965       17.1062659894        5.1076037573
  C        35.8625049172       16.1430197461        4.1052798426
  C        37.0601433998       16.1019329453        3.3936933146
  C        38.0935000379       17.0218770489        3.6633849045
  C        37.9016280984       17.9587527915        4.6966074880
  C        36.7054045872       18.0047511172        5.4057931807
  C        39.3564560894       17.0294928930        2.8903216096
  C        39.3608669499       17.0722924218        1.4692501253
  C        38.1588004846       17.2116658268        0.7062484243
  C        20.3264845876       17.9218709995        0.7583204701
  C        20.3527528222       17.9099412109        3.5724235064
  C        34.4784406974       17.2492092182       10.1763356770
  C        35.7806693170       17.1781675247       10.9011467445
  C        35.9989529791       16.1851347669       11.8676095464
  C        37.1859228866       16.1624230970       12.5938053395
  C        38.1823894762       17.1330424681       12.3743947293
  C        37.9704596340       18.1025509798       11.3767255310
  C        36.7815761170       18.1291694970       10.6521068586
  C        39.4272431370       17.1451888376       13.1733187283
  C        39.3973941716       17.1327773361       14.5940863396
  C        38.1756876280       17.2392339171       15.3302108343
  C        35.0845307506       26.6777031147       15.3039983719
  C        35.1268665206       26.7013216801       12.4951306104
  C        26.5636602074       17.8296555291       10.3188362366
  C        25.2445984507       17.8809692069       11.0161804699
  C        24.9962663918       18.8712932889       11.9785311942
  C        23.7788164158       18.9004274434       12.6528031757
  C        22.7838040719       17.9372916718       12.3909177571
  C        23.0279842400       16.9721797318       11.3971992184
  C        24.2450480247       16.9422910709       10.7191671530
  C        21.5221355417       17.9168423768       13.1658706334
  C        21.5461326332       17.8957939128       14.5870994863
  C        22.7645217545       17.7666468636       15.3262237086
  C        14.0450872596       17.8304753089       10.2871845966
  C        15.3487879132       17.8913963430       11.0105294660
  C        15.6023163315       18.8969545075       11.9562807649
  C        16.8109405833       18.9213642566       12.6488883200
  C        17.7985051658       17.9431792245       12.4165901221
  C        17.5500075010       16.9623071783       11.4381475494
  C        16.3408032765       16.9331086811       10.7473417853
  C        19.0666257622       17.9271165970       13.1849671748
  C        19.0651434067       17.9182717322       14.6070339951
  C        17.8585056397       17.8208112561       15.3690907970
  C        46.8076309307       17.2207373338       10.1607807043
  C        45.5217246901       17.1642724346       10.9126273462
  C        45.3173890329       16.1870474386       11.8987990224
  C        44.1387530967       16.1723925515       12.6394611668
  C        43.1357184667       17.1354415746       12.4153987900
  C        43.3385634383       18.0942827949       11.4045092286
  C        44.5176894205       18.1125310178       10.6646526177
  C        41.8814124838       17.1430937150       13.2007925708
  C        41.8803847692       17.1226392448       14.6225648426
  C        43.0846788228       17.2098138268       15.3894574158
  C        20.3123536191       17.9214270099       15.3135834124
  C        20.2894030998       17.9115386631       12.5011321693
  C        46.7806599931       17.2269430595        5.8915067199
  C        45.4725526488       17.1053100408        5.1831539561
  C        45.2616919710       16.1023615670        4.2241986694
  C        44.0708172361       16.0576370238        3.5027168657
  C        43.0582015860       17.0117566017        3.7227160825
  C        43.2584941963       17.9826033142        4.7222030561
  C        44.4514461283       18.0344646463        5.4381405768
  C        41.8125716404       17.0222734378        2.9206269232
  C        41.8452344618       17.0593541852        1.4994111675
  C        43.0678450120       17.1793283453        0.7659491125
  C        46.1530370267       26.6371994154        0.7263260759
  C        46.1625629257       26.6561857797        3.5359718428
  C        14.0456051922       17.8302273003        5.7074881736
  C        15.3660664165       17.9004367588        5.0150274268
  C        15.6446905829       18.9182572374        4.0905376590
  C        16.8738278036       18.9519765885        3.4355059844
  C        17.8522259884       17.9665786191        3.6779286204
  C        17.5801226548       16.9769685959        4.6400969029
  C        16.3534032075       16.9431646507        5.2993408421
  C        19.1189151452       17.9386798947        2.9075127078
  C        19.0926722955       17.9232366257        1.4856330138
  C        17.8716194095       17.8234556509        0.7454749368
  C        28.8109857850       14.0898217403       10.3884236702
  C        28.1994559359       12.9136196774       11.0757066231
  C        28.9319527454       12.1592758396       12.0041454312
  C        28.3367619644       11.0815243355       12.6553681179
  C        26.9944222177       10.7331385699       12.4028146598
  C        26.2826377363       11.4678897319       11.4375491751
  C        26.8759659441       12.5460039547       10.7846022397
  C        26.3317513656        9.6514854581       13.1689940610
  C        26.3372613245        9.6756126910       14.5902952820
  C        26.8494820425       10.7887310327       15.3290186803
  C        32.1530973217       21.2782729365       10.1413586639
  C        32.7330262395       22.4530578629       10.8571827357
  C        31.9842474158       23.1093215503       11.8458996751
  C        32.5454282022       24.1539675193       12.5743454455
  C        33.8723540322       24.5641078402       12.3404356324
  C        34.6023601610       23.9254702353       11.3200382350
  C        34.0420811677       22.8799390254       10.5893169496
  C        34.5000370741       25.6341853995       13.1479345300
  C        34.4884158671       25.6003922660       14.5696825144
  C        33.9731607117       24.4845909415       15.3021883862
  C        25.7361106429        8.5981436713       15.3171676680
  C        25.6850042588        8.6021439630       12.5033265580
  C        32.0805302568       21.2020449793        5.8682985505
  C        32.6512339573       22.3595443293        5.1186232658
  C        31.9045150557       23.0293081255        4.1366467650
  C        32.4738732299       24.0721953098        3.4079098540
  C        33.8025198829       24.4782284340        3.6446444143
  C        34.5307199836       23.8222021676        4.6556667689
  C        33.9674469131       22.7740292377        5.3778092382
  C        34.4374261894       25.5696742557        2.8691385187
  C        34.4534115185       25.5692665282        1.4472389997
  C        33.9547430617       24.4708823742        0.6786697219
  C        40.6119726457       17.0648284076        0.7683500570
  C        40.5767297550       17.0217820377        3.5776672055
  C        28.7627750067       14.1386019871        5.7690828819
  C        28.1835922898       12.9754242331        5.0309799248
  C        28.9194809590       12.2938474889        4.0494559048
  C        28.3566581950       11.2107761674        3.3749442612
  C        27.0405657415       10.7842746041        3.6500902444
  C        26.3242204250       11.4553779605        4.6593866616
  C        26.8858197995       12.5336443914        5.3389558069
  C        26.4014449147        9.6808134884        2.8899997950
  C        26.3736771733        9.6912463970        1.4675647086
  C        26.8634239096       10.7979375024        0.7047153081
  C        18.1355371295        3.1797093137       10.3174505686
  C        17.4050216373        4.2765315821       11.0155156913
  C        16.3903263612        3.9974976696       11.9439599192
  C        15.7417756388        5.0371135969       12.6072519313
  C        16.0919868919        6.3811467087       12.3667129950
  C        17.0803958574        6.6512430193       11.4020997168
  C        17.7301867561        5.6142931745       10.7370954989
  C        15.4673158805        7.4887218475       13.1297302596
  C        15.4829422919        7.4884735316       14.5514809101
  C        16.1849615221        6.4952767182       15.3047765219
  C        42.9455853908       31.8597240676       10.0726231477
  C        43.6457456324       30.7721888060       10.8170917762
  C        44.5912074534       31.0934014824       11.8032570177
  C        45.1968758813       30.0877910872       12.5509056776
  C        44.8705229057       28.7347282120       12.3359091151
  C        43.9447902266       28.4204896687       11.3225702413
  C        43.3359905766       29.4256944425       10.5746062899
  C        45.4881333399       27.6553413436       13.1389987765
  C        45.4923193574       27.6808812051       14.5606986609
  C        44.8052299676       28.6888715158       15.3074018671
  C        14.8541427016        8.5611708660       15.2637299827
  C        14.8719189145        8.5604063434       12.4510425937
  C        42.9463768376       31.9618448989        5.8091598152
  C        43.6919388731       30.8856380142        5.0958730122
  C        44.6561997538       31.1915036501        4.1232421177
  C        45.2777101142       30.1719109359        3.4054814470
  C        44.9542002231       28.8215738294        3.6433405786
  C        44.0211707192       28.5239437696        4.6545575148
  C        43.3929496169       29.5407217799        5.3667835413
  C        45.5630954236       27.7241403369        2.8579933519
  C        45.5331057693       27.7173438984        1.4366902500
  C        44.8266286696       28.7075078730        0.6837953523
  C        35.0679809621       26.6612605804        0.7491879006
  C        35.0535070900       26.6209987934        3.5598566400
  C        18.1485988179        3.2468656074        5.7066378188
  C        17.4298641350        4.3437154841        4.9974907261
  C        16.4144436523        4.0522723552        4.0741766009
  C        15.7660045065        5.0827516331        3.3986816465
  C        16.1206602631        6.4280747126        3.6210039433
  C        17.1122383811        6.7116193444        4.5780230652
  C        17.7600797102        5.6828573946        5.2579132948
  C        15.4899161286        7.5235730947        2.8483953064
  C        15.4950963784        7.5064080310        1.4272336610
  C        16.1916963471        6.5045570308        0.6805917829
  H        10.6721178215       12.4656720548        3.9046281040
  H        11.6939799538       10.5508016752        2.6626779537
  H        15.3915531277       11.1685263574        4.7712723069
  H        14.3514639783       13.0712917951        6.0166254102
  H        13.3747870132       11.6300553303        1.2003687936
  H        50.3228247892       22.7483721960        3.9867008138
  H        49.3196931050       24.6228431310        2.6807251089
  H        45.6424054588       24.1614624771        4.8639862386
  H        46.6632872222       22.2904100732        6.1721443144
  H        47.6299093408       23.5760111032        1.2461122406
  H        14.8723329577        8.5884766414        4.6081598663
  H        50.2866260878       22.7026411852       12.0603077814
  H        49.2686773699       24.5755288020       13.3602718930
  H        45.6101888139       24.1094127358       11.1456933300
  H        46.6523531831       22.2540943621        9.8314179266
  H        47.6076419023       23.5519511079       14.7967816246
  H        40.6729407981       17.1502034679       11.4272041246
  H        48.6871408913       14.0950041654        7.8000596426
  H        10.6802146179       12.4664853173       12.0926037725
  H        11.6871972577       10.5238068185       13.2960394686
  H        15.3915944790       11.1559910924       11.2047674538
  H        14.3644372081       13.0851841132        9.9898042152
  H        13.3735999969       11.6202532197       14.7522426164
  H        47.9303066595       14.2180530111        9.7108440226
  H        47.7801167522       14.3740047463        6.4952744187
  H        49.0849437849       18.5530302852       10.8673146417
  H        10.4160970335       14.1343104125        7.9984996040
  H        24.5192133899        3.0251734347        3.9462560335
  H        25.6878073243        4.8733434805        2.7354961987
  H        23.3051446720        7.7582646691        4.8559461981
  H        22.1541248100        5.9002720175        6.0689942569
  H        23.8721349080        5.7824045457        1.2991545535
  H        36.3512992535       32.1944479093        3.9946764718
  H        35.2015889782       30.3778194180        2.7277836796
  H        37.4746529803       27.4397078668        4.8962586283
  H        38.6034376577       29.2695405986        6.1739619296
  H        36.9743676135       29.4676567917        1.3027419061
  H        25.8349232744        8.6056771599        4.6629249653
  H        36.4584603629       32.2662471778       12.1075152194
  H        35.3278584349       30.4661751604       13.4111758207
  H        37.5045052609       27.4989734562       11.1825942134
  H        38.6103228832       29.3114378980        9.8659742271
  H        37.0012779198       29.4961205047       14.8551423047
  H        46.1088062011       26.5877461284       11.3856115392
  H        44.6706086222       35.1163477839        7.8102814033
  H        24.4288229375        3.0308700683       12.0968274082
  H        25.5642581320        4.8612947899       13.3544477656
  H        23.1770259511        7.7646059845       11.2642286223
  H        22.0533674973        5.9219763549       10.0058338326
  H        23.8242926604        5.7807117343       14.8521691805
  H        44.9545680524       34.3898410662        9.6947405705
  H        44.8997554735       34.2056927440        6.4886746678
  H        40.6656617239       33.2104856043       10.8523370768
  H        23.1525906720        1.9580782925        8.0054569185
  H        25.8223636338       19.6088735924        3.8661972072
  H        23.6318094961       19.6772111634        2.6774711165
  H        22.3764028793       16.1516874922        4.7963498982
  H        24.5716338272       16.0989144993        5.9885664531
  H        23.7181903465       17.6349238420        1.2295359486
  H        35.0626801632       15.4359327246        3.8945797661
  H        37.2095501714       15.3480192342        2.6237462414
  H        38.6909550716       18.6759489811        4.9120420550
  H        36.5426094186       18.7431901864        6.1870994286
  H        37.2168427953       17.3281347308        1.2338321360
  H        20.3621546787       17.9426350691        4.6605405388
  H        35.2188190289       15.4491469620       12.0467084694
  H        37.3546879668       15.3890852955       13.3399807383
  H        38.7335361428       18.8586343683       11.2036742460
  H        36.5959238403       18.8943337020        9.9020794491
  H        37.2473422701       17.3753672939       14.7828629144
  H        35.1044366879       26.7314111953       11.4074649643
  H        28.4491195082       21.0883206971        8.4392510963
  H        25.7744324409       19.6038465635       12.1827746460
  H        23.5846205005       19.6726124515       13.3940744364
  H        22.2679114731       16.2216163658       11.1900835519
  H        24.4510640966       16.1846241738        9.9668648289
  H        23.6940690567       17.6379507614       14.7798497192
  H        29.0786509692       21.7486505738        9.7631243479
  H        28.9159211010       21.7445459080        6.5264381051
  H        32.1168319386       18.5421656208       10.9440244638
  H        27.3685136513       19.0403077093        8.0597793520
  H        14.8417097029       19.6541129997       12.1329633761
  H        17.0054152635       19.7065757565       13.3762938096
  H        18.3036849668       16.2001716180       11.2510220586
  H        16.1357435155       16.1629507568       10.0076100669
  H        16.9149676229       17.7116871301       14.8422703526
  H        46.0987273826       15.4519281186       12.0767285976
  H        43.9789869205       15.4055108794       13.3941729003
  H        42.5720494639       18.8461532286       11.2286242222
  H        44.6912520199       18.8659269832        9.8998947789
  H        44.0289338599       17.3344294238       14.8669900989
  H        20.2817622134       17.9482589369       11.4132533535
  H        46.0478625929       15.3727249726        4.0439181539
  H        43.9138496111       15.2803487250        2.7579442607
  H        42.4826841127       18.7243370868        4.9005366590
  H        44.6253365445       18.8049549624        6.1854390218
  H        43.9991516567       17.2794364519        1.3157731672
  H        46.1996715322       26.6828180313        4.6234067916
  H        52.7413129234       21.0627456608        8.1947401779
  H        14.8883930172       19.6771088920        3.9021691882
  H        17.0887875119       19.7447594601        2.7221944084
  H        18.3261008321       16.2092463614        4.8351491555
  H        16.1287521455       16.1664384808        6.0262701335
  H        16.9380721407       17.7164953486        1.2896098140
  H        52.3229706510       21.6734192382        6.2939872718
  H        52.0136548357       21.7026191575        9.4955569854
  H        49.0668966525       18.6068481917        5.2038456673
  H        13.2477352843       19.0162495008        7.9766443923
  H        29.9656854086       12.4329494187       12.2027365905
  H        28.9069486798       10.4971936043       13.3743619489
  H        25.2450130739       11.2103024776       11.2351882883
  H        26.3234749974       13.1344937660       10.0561586334
  H        27.2046695291       11.6577182012       14.7834064942
  H        30.9695893685       22.7708154317       12.0428196580
  H        31.9588563494       24.6638707955       13.3353885665
  H        35.6295596229       24.2324133540       11.1340915068
  H        34.6116915358       22.3608118492        9.8219950636
  H        33.6161979859       23.6191603462       14.7513599078
  H        25.7005280426        8.5839739231       11.4149935506
  H        30.8777694018       22.7192700417        3.9551538134
  H        31.8873343822       24.5924141414        2.6536295315
  H        35.5587550507       24.1239340772        4.8453640934
  H        34.5354901374       22.2485481806        6.1417282886
  H        33.5829163507       23.5947293011        1.2018561227
  H        40.5638142316       16.9671230257        4.6646476582
  H        32.5189889005       14.1483274579        8.2453578634
  H        29.9333742656       12.6233916206        3.8324957702
  H        28.9385484656       10.6786241481        2.6254597939
  H        25.3060839969       11.1426165112        4.8819048498
  H        26.3274042094       13.0614591605        6.1081276398
  H        27.2271909718       11.6754126229        1.2308798271
  H        33.2787858077       14.1912502613        6.4188994598
  H        33.4099942633       14.4033191871        9.6032983804
  H        32.1160816996       18.5556958640        5.1806878699
  H        30.2375799425       14.1881652983        8.0613055459
  H        16.1200186406        2.9607198500       12.1313658592
  H        14.9530660397        4.8171501556       13.3235463167
  H        17.3616760778        7.6843066300       11.2083152918
  H        18.5115073816        5.8175394846       10.0086486136
  H        16.7515553310        5.7379182836       14.7713469280
  H        44.8276309975       32.1404397784       11.9775064574
  H        45.9367169902       30.3415171883       13.3068863242
  H        43.6822070709       27.3784231261       11.1522577141
  H        42.5995330392       29.1904361904        9.8097614676
  H        44.2298248569       29.4366398666       14.7691527971
  H        14.8480675926        8.5434324276       11.3628267496
  H        44.8995324449       32.2341888548        3.9315415114
  H        46.0243612326       30.4131881760        2.6520047149
  H        43.7645164801       27.4841946619        4.8464370772
  H        42.6468113048       29.3179432282        6.1255943756
  H        44.2681849908       29.4704065527        1.2184325528
  H        35.0134388452       26.6260432153        4.6475308587
  H        36.6078146930       35.1348990973        8.1847403054
  H        16.1432891012        3.0126628273        3.9047660887
  H        14.9735224689        4.8557253199        2.6888305211
  H        17.3958405918        7.7471059771        4.7546582811
  H        18.5431449675        5.8935595703        5.9824050207
  H        16.7635469897        5.7546431866        1.2190412322
  H        36.2784749601       34.4833367029        6.2735862121
  H        36.3862830349       34.2073180618        9.4995046718
  H        40.5781782418       33.2025206397        5.1536651537
  H        17.4760649939        1.9464466960        7.9767397334
  H        29.7804899776       19.4470492333        3.1348488834
  H        31.0127408552       16.5827059691        4.0493024204
  H        31.2481455856       15.6036012633       12.5332961367
  H        28.4045868371       17.9668155210       14.5929640297
  H        29.4262523574       15.7425587826       14.6445613674
  H        31.5254753033       19.8687292228        1.7264447635
  H        32.8935482626       16.8614881437        1.8979942635
  H        28.3409347747       16.8130472945        1.1265444970
  H        32.4694357114       18.4612137341       15.8976318670
  H        18.9045811713        0.8517436789       12.3628229016
  H        40.5245487527       35.2295936265        3.9512358821
  H        42.3253537051       34.4198201132        3.5891425310
  H        22.0968833735        0.6994304672       12.3429802537
  H        11.5961172020       18.7134406641       12.3827168914
  H        52.2652269686       18.4314073352        3.6772160834
  H        49.2553586666       16.4770428435        3.5841265426
  H        10.1511667307       15.7982722619       12.2924100108
  H        50.8504480318       17.6925380296        3.9541421565
  H        10.0464324941       17.3947485613       12.0518857103
  H        20.2923879577        0.0045777519       12.0340902805
  H        39.1819200316       36.1253127930        3.6889568362
 Ni        30.9407020919       17.6272977564        2.9973691609
 Ni        31.0728053817       16.4857822920        0.2445913805
 Ni        30.0583431498       18.8173974569        0.0010622251
 Ni        30.1433496256       17.4970453935       13.0820965586
  O        10.6498987626       14.3651314057        5.4858183264
  O        12.6131336846       14.6574640901        6.5838090239
  O        49.1478615494       16.8459569874        7.9895031099
  O        50.3502686837       20.9358747140        5.6479991963
  O        48.3485577642       20.5932325838        6.6658167638
  O        11.0516696294       17.0539131303        6.5006236906
  O        50.3206634532       20.8817163269       10.4068256217
  O        48.3466318797       20.5866007987        9.3269237340
  O        49.5441200368       18.2484638001       10.0679434039
  O        12.3591974422       18.6246718383        7.9995638151
  O        48.6932548142       14.1486123794        6.7512927725
  O         8.2099700581       14.2103316942        9.3224794831
  O        10.7353436154       14.5067370117       10.6642585817
  O        12.5718165308       14.5827029946        9.3285543341
  O        22.8460202621        2.0449452180        5.4865208381
  O        21.6086751007        3.5945796866        6.5868744757
  O        42.0594794247       34.1371985973        7.9765022295
  O        37.9812975148       33.1369281293        5.5729655210
  O        39.2173219027       31.5750287570        6.6661003885
  O        20.3094025636        1.0403969257        6.5019413027
  O        38.0262668593       33.1883266098       10.4155817929
  O        39.2181127350       31.5833982523        9.3281932214
  O        40.6544785697       33.7685384013       10.0578052106
  O        18.2604029331        1.3746460399        7.9981792394
  O        44.6227927830       35.1003229223        6.7567379081
  O        24.2068519586       -0.0001344417        9.3202331915
  O        22.7533038634        2.0566477162       10.5837288491
  O        21.6259572617        3.5972591017        9.3450864907
  O        27.5775293254       18.6045288755        5.3336008366
  O        26.7562120289       16.9354136820        6.6442958322
  O        30.6697946730       19.4089115804        8.0960671852
  O        33.4627625802       16.3417507443        5.5714518918
  O        34.2626097351       18.1718395385        6.6689322180
  O        29.5728617119       17.0750763615        6.5835437533
  O        33.6215794882       16.3307123811       10.4093985009
  O        34.3101211063       18.2463914016        9.3930946432
  O        31.7305578514       18.3065480905       10.0827558644
  O        30.3248172376       15.1556618119        8.0836270598
  O        28.5058389031       20.9509989370        6.9072552406
  O        28.4725067999       21.0375420918        9.4843777221
  O        27.4476377077       18.6766881854       10.6577874582
  O        26.6926816211       16.9239412154        9.4126821590
  O        13.1466479284       18.6935979128       10.5867979671
  O        13.9186810792       16.9164183144        9.4047808694
  O        50.5959956939       19.3501686921        8.0197909432
  O        47.6841297322       16.3269333158       10.4170850801
  O        46.9520950320       18.1759755770        9.3242724387
  O        11.0697753865       17.0155180387        9.4894928004
  O        47.6751397395       16.3357320256        5.6532155930
  O        46.9229670594       18.2354580246        6.6620740578
  O        49.5685862093       18.3176457555        5.9820246702
  O        10.3186374228       15.1001572445        7.9971064430
  O        52.6707020133       21.0279705088        9.2417907517
  O        12.1468911318       20.8911921262        6.6731713285
  O        13.1087122195       18.6135124332        5.3254857105
  O        13.9571324060       16.9868120450        6.6652957631
  O        29.9956005631       14.4399665663       10.7259185854
  O        28.0898548207       14.6529095768        9.4932927439
  O        32.1423891014       16.8544891219        8.0680824047
  O        30.9514541693       20.9596470915       10.4115286701
  O        32.9214628079       20.6570501662        9.3255999254
  O        29.5773851609       17.0629026240        9.5753971655
  O        30.8534403868       20.8885662991        5.6481356140
  O        32.8696133572       20.5920500555        6.6636740898
  O        31.6384620975       18.3080576019        5.9918641036
  O        28.2510953287       18.6362023482        8.0807057252
  O        32.4940566564       14.2137104576        9.3267631998
  O        32.3969842468       14.2221047818        6.8246685010
  O        29.9125792043       14.5813724442        5.4134873314
  O        28.0565246397       14.5928211904        6.7390809135
  O        17.8899755789        1.9654345517       10.6633869009
  O        18.9564084414        3.5267212850        9.4082818818
  O        39.1693528982       34.1392546784        7.9993758012
  O        43.2804224048       33.0593392345       10.3313603549
  O        42.0344564136       31.5066314965        9.2414625508
  O        20.3221337781        1.0381429275        9.4783549344
  O        43.2761209103       33.1827760570        5.5747821463
  O        42.0051369104       31.5842226268        6.5829344509
  O        40.5788300751       33.7752057501        5.9357717967
  O        22.3689300936        1.3855387120        7.9969437417
  O        36.6742599890       35.0998945943        9.2356881267
  O        16.4462126032        0.0649301893        6.6680611095
  O        17.9364424595        2.0432921268        5.3267043611
  O        18.9193009101        3.5931694177        6.6659727392
  O        29.6586561226       18.8275908948        3.9236337472
  O        29.9078826600       18.8253943921       11.9015909105
  O        31.2956422912       16.4234858878       12.0024477620
  O        31.9716198471       16.5501456361        1.9039300719
  O        29.2276852592       17.2159086930        1.0786370647
  O        30.3326531260       16.0545663284       14.4736007177
  O        31.7608249802       18.0852363224       15.3415399750
  O        30.7570529297       19.2743600845        1.7463541736
  O        29.1585885624       18.5352022587       14.3459420018
  O        39.4555157652       35.2439538702        4.0021788299
  O        19.2010629752        0.0037907640       11.9878400087
  O        41.9700253618       35.1726390405        4.0866757826
  O        21.7010149868       -0.0687580577       11.8978867737
  O        51.3653441186       18.6143278613        4.0053702270
  O        10.7504451482       18.7473195152       11.9049217678
  O        50.0795779718       16.4127906470        4.0916976577
  O         9.5250015933       16.4829765517       11.9911393044
 Zr         9.2973576183       16.0527917798        6.1823564291
 Zr        49.8370920006       16.0065498749        9.7463956438
 Zr        22.0727826753        0.0318083449        6.1855965981
 Zr        42.4637918473       35.1525746765        9.7914187074
 Zr        29.5895389326       19.1942798835        6.4344969903
 Zr        29.5976152732       19.1131447677       10.0464366891
 Zr        11.0380071307       19.0520390457        9.8275550714
 Zr        11.0445112191       19.1548047623        6.2507622191
 Zr        31.3553246722       16.0979655224        9.8768006305
 Zr        31.3699929511       16.0574091579        6.3380280513
 Zr        18.6077134707        0.0015688152        9.7750212027
 Zr        18.5065099925       -0.0081011698        6.2171996996
 Zr        12.3025992223       16.3234312477        7.9902716633
 Zr        48.6166622663       18.8330226282        8.0091586417
 Zr        20.3165879356        2.4757694461        7.9895932810
 Zr        40.6414301369       32.6878886231        7.9776875266
 Zr        28.3421145643       16.3505784189        8.0880408570
 Zr        32.6315201179       18.8635198544        8.0639249708
  H        28.7236152809       18.4903671177        3.9310253098
