     571
 i =      168, E =     -4761.5615964562
  C        11.8587449276       14.0534344681        5.7415018570
  C        12.4562434612       12.8905986599        5.0230770895
  C        11.7045733701       12.1716717264        4.0813827833
  C        12.2809785726       11.1095304396        3.3889465633
  C        13.6215751567       10.7397241771        3.6166298123
  C        14.3547548635       11.4433748524        4.5900455708
  C        13.7818438796       12.5083019598        5.2816212184
  C        14.2610538635        9.6489283457        2.8433163138
  C        14.2562697190        9.6566237704        1.4216018452
  C        13.7432067950       10.7587075587        0.6675695673
  C        49.1269374335       21.2331520137        5.8795580217
  C        48.5502050430       22.4011750014        5.1525193057
  C        49.3001948520       23.0683979837        4.1714259219
  C        48.7332824172       24.1075764448        3.4382450868
  C        47.4028118415       24.5093580938        3.6670076773
  C        46.6719325019       23.8606125410        4.6806547641
  C        47.2343490026       22.8156633767        5.4099658294
  C        46.7725034678       25.5870513327        2.8697717960
  C        46.7612775824       25.5574156450        1.4480081983
  C        47.2611781888       24.4423519959        0.7044463756
  C        14.8600884455        8.5701361038        0.7084365866
  C        14.8917743603        8.5970054620        3.5200792405
  C        49.1130080927       21.2034522536       10.1452765115
  C        48.5275194575       22.3648446960       10.8724467994
  C        49.2666913801       23.0255789325       11.8653923589
  C        48.6903433921       24.0601740354       12.5968123796
  C        47.3599339451       24.4569611992       12.3585709406
  C        46.6395929752       23.8120547395       11.3349915229
  C        47.2131701305       22.7761233097       10.6032359489
  C        46.7214555388       25.5319329463       13.1496245406
  C        46.7332118165       25.5282424211       14.5713418507
  C        47.2487683474       24.4290534021       15.3276847308
  C        40.6302980286       17.1311089791       15.3310083254
  C        40.6610071186       17.1770687033       12.5220749627
  C        11.8830723039       14.0863869243       10.2854892117
  C        12.4723418967       12.9105018590       10.9896526157
  C        11.7147506145       12.1770496206       11.9155263282
  C        12.2812801446       11.0944295426       12.5837533933
  C        13.6201521323       10.7207288312       12.3520602688
  C        14.3582152205       11.4365931946       11.3915370118
  C        13.7928557290       12.5179367568       10.7190231047
  C        14.2536416015        9.6238200091       13.1224675958
  C        14.2523505669        9.6439188657       14.5443272523
  C        13.7426660261       10.7530258986       15.2913042766
  C        22.5206630705        3.2479281936        5.7556424868
  C        23.2531550913        4.3518032188        5.0667463711
  C        24.2625676849        4.0664797640        4.1345465062
  C        24.9074958265        5.1012266924        3.4604547693
  C        24.5613827363        6.4471207666        3.6958839229
  C        23.5812452609        6.7241563347        4.6669160577
  C        22.9316795537        5.6908893564        5.3400163149
  C        25.1787934704        7.5480728344        2.9156529578
  C        25.1394565167        7.5378703068        1.4934377321
  C        24.4256770996        6.5406297707        0.7551182304
  C        38.2971497770       31.9280525605        5.8534289257
  C        37.5534363137       30.8396759613        5.1544021898
  C        36.5825560364       31.1480334038        4.1890153220
  C        35.9500796852       30.1311778141        3.4791332994
  C        36.2734472746       28.7797884395        3.7109606633
  C        37.2133166994       28.4785741856        4.7147038330
  C        37.8495177634       29.4945845529        5.4244151336
  C        35.6612122199       27.6947628097        2.9097350399
  C        35.6941548824       27.7184858501        1.4878845145
  C        36.4077975593       28.7207421803        0.7574701560
  C        25.7604763680        8.6035162661        0.7646587270
  C        25.7915120053        8.6212191455        3.5772202342
  C        38.3307753586       31.9642220667       10.1603656712
  C        37.6084858244       30.8977765274       10.9116053099
  C        36.6793341383       31.2200108277       11.9128949008
  C        36.0602716460       30.2117475793       12.6489263911
  C        36.3554544797       28.8555279194       12.4065312548
  C        37.2664378171       28.5430186045       11.3787851111
  C        37.8878153108       29.5480696025       10.6440676373
  C        35.7284269010       27.7646266459       13.1877232475
  C        35.7281706312       27.7545942404       14.6099160324
  C        36.4238188025       28.7380473664       15.3808768443
  C        46.1352164052       26.6208465150       15.2815568662
  C        46.0874598371       26.5803354194       12.4736535486
  C        22.4603940373        3.2560709735       10.2615346703
  C        23.1524957932        4.3621195688       10.9918201463
  C        24.1510899872        4.0712721601       11.9352922131
  C        24.7805612711        5.0972705511       12.6363900151
  C        24.4328285858        6.4455030453       12.4172532153
  C        23.4553206787        6.7294299489       11.4442278646
  C        22.8211141204        5.7036270912       10.7436021535
  C        25.0732463369        7.5409344531       13.1886631980
  C        25.0854469680        7.5333396389       14.6121386345
  C        24.3984747587        6.5392629083       15.3783884706
  C        26.6628586775       17.7852721446        5.6933900436
  C        25.3509816924       17.8391913810        4.9793206229
  C        25.0749786739       18.8550919823        4.0507767858
  C        23.8470025521       18.8930266542        3.3928254597
  C        22.8604547644       17.9166315921        3.6391029036
  C        23.1332172588       16.9224945525        4.5972350276
  C        24.3606858390       16.8822927115        5.2565041608
  C        21.5792206434       17.9140661649        2.8886549710
  C        21.5754205278       17.8967125501        1.4665686816
  C        22.7788510363       17.7679714712        0.7034385576
  C        34.4071169393       17.2208123188        5.9090875881
  C        35.6954669852       17.1510607486        5.1600929124
  C        35.8861957848       16.1938390539        4.1510754598
  C        37.0722287582       16.1694330169        3.4206500964
  C        38.0989536521       17.0996449280        3.6788021997
  C        37.9086119159       18.0357749637        4.7134452745
  C        36.7218183280       18.0660386473        5.4409728372
  C        39.3584125594       17.1039559509        2.8994673606
  C        39.3617971020       17.1323985169        1.4778578565
  C        38.1596129691       17.2661011076        0.7140815199
  C        20.3275177841       17.9225129234        0.7619926790
  C        20.3573510501       17.9203571179        3.5759648345
  C        34.4785389303       17.2480439988       10.1859398297
  C        35.7821015511       17.1754652968       10.9077406987
  C        36.0003727257       16.1885120884       11.8803528628
  C        37.1868241154       16.1714033434       12.6077650778
  C        38.1828351696       17.1410172888       12.3819893319
  C        37.9716419707       18.1030048785       11.3770352943
  C        36.7830496480       18.1246831489       10.6522256107
  C        39.4273431733       17.1602059547       13.1809298365
  C        39.3972988009       17.1622170672       14.6016690441
  C        38.1759878189       17.2778539875       15.3375041127
  C        35.0849181725       26.6779321520       15.3064650703
  C        35.1295242857       26.7037122842       12.4975794752
  C        26.5570385923       17.8271216782       10.3155417193
  C        25.2366482102       17.8781371010       11.0108480800
  C        24.9882138521       18.8686088974       11.9731387843
  C        23.7722620771       18.8957170496       12.6500072434
  C        22.7787462419       17.9302703260       12.3907488710
  C        23.0226439043       16.9654859403       11.3966681940
  C        24.2383723839       16.9377427710       10.7158547087
  C        21.5185568113       17.9091052598       13.1679307237
  C        21.5444354921       17.8911914038       14.5891972555
  C        22.7637584676       17.7650105343       15.3274111747
  C        14.0443853916       17.8294220628       10.2881738431
  C        15.3467619796       17.8878000040       11.0138169223
  C        15.5999480466       18.8916353527       11.9614718858
  C        16.8077427188       18.9139083793       12.6555166168
  C        17.7947313117       17.9352776171       12.4227319438
  C        17.5462912510       16.9557008278       11.4429961280
  C        16.3379610114       16.9286502365       10.7507129166
  C        19.0632179332       17.9189351799       13.1902700457
  C        19.0635184314       17.9124556280       14.6122862413
  C        17.8578961799       17.8153103506       15.3759122748
  C        46.8071261492       17.2214540137       10.1616392523
  C        45.5213828389       17.1672842674       10.9148641615
  C        45.3171723998       16.1939823634       11.9050140919
  C        44.1391933713       16.1828252980       12.6472217624
  C        43.1358543933       17.1449657930       12.4203880472
  C        43.3383380902       18.0994401284       11.4052096928
  C        44.5169835598       18.1145981917       10.6643168637
  C        41.8817103774       17.1573522074       13.2069199532
  C        41.8806487482       17.1477152222       14.6287855001
  C        43.0856711831       17.2357742082       15.3942386342
  C        20.3116066585       17.9179135493       15.3172518839
  C        20.2850406188       17.9022927624       12.5048319967
  C        46.7816167513       17.2285584138        5.8922757755
  C        45.4729317441       17.1152327484        5.1855186885
  C        45.2533369844       16.1162131074        4.2248784605
  C        44.0618440083       16.0845847666        3.5039459528
  C        43.0590865932       17.0484102907        3.7266510588
  C        43.2675973658       18.0145611706        4.7286844049
  C        44.4606410432       18.0530278624        5.4441708808
  C        41.8140079232       17.0729373286        2.9259238482
  C        41.8460376984       17.1030248388        1.5049847800
  C        43.0691359365       17.2124942286        0.7707508786
  C        46.1531214358       26.6372659215        0.7263271477
  C        46.1626820890       26.6562062149        3.5359674502
  C        14.0466674874       17.8314119014        5.7084949391
  C        15.3685088282       17.9044758004        5.0187004352
  C        15.6454558164       18.9204996740        4.0916764378
  C        16.8751682875       18.9557475119        3.4377410897
  C        17.8562433052       17.9738392942        3.6838276391
  C        17.5863153915       16.9871302337        4.6496366410
  C        16.3588607866       16.9516024010        5.3075479242
  C        19.1225198454       17.9455096195        2.9124719234
  C        19.0945184903       17.9249810117        1.4906612369
  C        17.8727260910       17.8212179840        0.7521863626
  C        28.8084927360       14.0924208354       10.3917270256
  C        28.1976075035       12.9151080461       11.0787312486
  C        28.9335289178       12.1536974479       11.9988207714
  C        28.3384965902       11.0754297536       12.6496617322
  C        26.9930004120       10.7336887105       12.4049126849
  C        26.2773615269       11.4759934687       11.4484814559
  C        26.8705804885       12.5543627807       10.7956869099
  C        26.3309984450        9.6512760477       13.1708430462
  C        26.3392909174        9.6742790432       14.5920288142
  C        26.8566978078       10.7851356435       15.3306562269
  C        32.1510760022       21.2808690830       10.1450919894
  C        32.7306175996       22.4592862241       10.8560473050
  C        31.9803303554       23.1208634505       11.8400930298
  C        32.5426632442       24.1643371290       12.5693530607
  C        33.8722303712       24.5684927649       12.3401621227
  C        34.6035625947       23.9258044342       11.3233881320
  C        34.0421165497       22.8810539284       10.5923014589
  C        34.5009396621       25.6369439466       13.1490352726
  C        34.4881186371       25.6020463773       14.5706727904
  C        33.9709174511       24.4861957851       15.3017425675
  C        25.7362549704        8.5981250551       15.3191715788
  C        25.6820586074        8.6032706551       12.5052924702
  C        32.0816612671       21.1957090124        5.8703720667
  C        32.6518866177       22.3522454216        5.1176315471
  C        31.9037343343       23.0230583683        4.1374819452
  C        32.4721812911       24.0670485683        3.4091178540
  C        33.8012134922       24.4729136240        3.6442522413
  C        34.5312247414       23.8146623424        4.6524753801
  C        33.9688502911       22.7656653289        5.3742711866
  C        34.4351406171       25.5664257886        2.8702530469
  C        34.4517599969       25.5677810936        1.4483477680
  C        33.9522636324       24.4707746061        0.6782195663
  C        40.6122354887       17.1117046978        0.7754668409
  C        40.5794210055       17.0902055026        3.5847298009
  C        28.7659519665       14.1418991790        5.7692112816
  C        28.1850711980       12.9786023585        5.0299100045
  C        28.9257371235       12.2869785316        4.0592078175
  C        28.3628661155       11.2031804928        3.3854720730
  C        27.0421279496       10.7855508208        3.6513075195
  C        26.3204818492       11.4666898555        4.6498823434
  C        26.8821814154       12.5458775706        5.3283562619
  C        26.4034830420        9.6809054274        2.8918335922
  C        26.3772913024        9.6898268215        1.4694589555
  C        26.8717622319       10.7942453862        0.7063518265
  C        18.1357256655        3.1798230592       10.3175599292
  C        17.4057865855        4.2769242720       11.0157972629
  C        16.3908316637        3.9984598402       11.9441292922
  C        15.7428876764        5.0384642085       12.6074306661
  C        16.0939315679        6.3823116760       12.3669985013
  C        17.0826354606        6.6518447062       11.4025351579
  C        17.7317975180        5.6145220114       10.7375101063
  C        15.4696827054        7.4901621248       13.1299766557
  C        15.4850908154        7.4897506247       14.5517183892
  C        16.1867426347        6.4963050591       15.3050322323
  C        42.9455660975       31.8597228281       10.0726678016
  C        43.6456984966       30.7722068173       10.8171487446
  C        44.5911436590       31.0934517136       11.8033201988
  C        45.1968656909       30.0878525191       12.5509263378
  C        44.8705534105       28.7347801028       12.3359332203
  C        43.9448293594       28.4205228444       11.3225909462
  C        43.3359642381       29.4257053238       10.5746494432
  C        45.4882165523       27.6554119654       13.1390006628
  C        45.4924208789       27.6809680207       14.5606998633
  C        44.8053400327       28.6889529244       15.3074173340
  C        14.8562641856        8.5624135262       15.2639811035
  C        14.8745387069        8.5620068912       12.4512929577
  C        42.9463447237       31.9617767577        5.8091022671
  C        43.6919116203       30.8855987165        5.0958378721
  C        44.6561691478       31.1914980469        4.1232143972
  C        45.2777116351       30.1719285082        3.4054637358
  C        44.9542972928       28.8215759565        3.6433874185
  C        44.0212349619       28.5239150480        4.6545722720
  C        43.3929769197       29.5406777401        5.3667873439
  C        45.5631862342       27.7241624878        2.8580126742
  C        45.5332174397       27.7174134742        1.4367065631
  C        44.8267411208       28.7075804055        0.6838112275
  C        35.0672123091       26.6602108174        0.7516538752
  C        35.0504560662       26.6175001677        3.5622904876
  C        18.1485769215        3.2468476280        5.7066781372
  C        17.4299357211        4.3437397824        4.9975622297
  C        16.4146999999        4.0524175389        4.0740096863
  C        15.7663832361        5.0829969381        3.3985483943
  C        16.1209927820        6.4282789404        3.6211935134
  C        17.1123268275        6.7117054293        4.5784931057
  C        17.7600416443        5.6828399964        5.2583191565
  C        15.4905030009        7.5239238980        2.8486140821
  C        15.4962966309        7.5071060723        1.4274637021
  C        16.1930431877        6.5053313985        0.6808479183
  H        10.6724240072       12.4657360971        3.9043849046
  H        11.6946866560       10.5510482075        2.6624075584
  H        15.3918410005       11.1689194187        4.7716819438
  H        14.3514104763       13.0715795159        6.0169297547
  H        13.3763585112       11.6309671372        1.2007740651
  H        50.3228717356       22.7482815962        3.9866060984
  H        49.3197735635       24.6227811144        2.6806267291
  H        45.6425279030       24.1615698851        4.8639977948
  H        46.6634074941       22.2905080220        6.1721687687
  H        47.6299022347       23.5760270491        1.2460892208
  H        14.8722280789        8.5884401679        4.6083904875
  H        50.2867516844       22.7027608424       12.0603204081
  H        49.2687725325       24.5756524327       13.3602756188
  H        45.6102322538       24.1093707590       11.1458193635
  H        46.6524168744       22.2540262391        9.8315786195
  H        47.6076216108       23.5519871264       14.7967505314
  H        40.6719877973       17.1496398395       11.4341849062
  H        48.6870760838       14.0950917754        7.8000106908
  H        10.6812350948       12.4660014066       12.0928606747
  H        11.6893935925       10.5238650805       13.2962390231
  H        15.3937282525       11.1589087573       11.2057439272
  H        14.3654122485       13.0875154409        9.9908304479
  H        13.3760226909       11.6216659806       14.7525778215
  H        47.9302530370       14.2182597081        9.7109452240
  H        47.7800688893       14.3740012460        6.4951995325
  H        49.0849672886       18.5529807619       10.8674615429
  H        10.4161204099       14.1343105556        7.9985751586
  H        24.5195042862        3.0263535474        3.9464566726
  H        25.6876963822        4.8754659744        2.7366344997
  H        23.3041398066        7.7588244581        4.8582553180
  H        22.1533655110        5.8998708113        6.0700982742
  H        23.8682335480        5.7858117095        1.3020093978
  H        36.3488355743       32.1924114630        3.9962480088
  H        35.1983846857       30.3749914511        2.7315609330
  H        37.4710745067       27.4382383944        4.9022555366
  H        38.6008682852       29.2688440236        6.1775189120
  H        36.9745699403       29.4651811144        1.3089468098
  H        25.8338706619        8.6079555898        4.6649454914
  H        36.4619503654       32.2672045462       12.1103913855
  H        35.3328410443       30.4676538640       13.4161381571
  H        37.5072184446       27.4995740720       11.1864916203
  H        38.6116424340       29.3114969325        9.8679012019
  H        37.0040441557       29.4953523379       14.8613970068
  H        46.1088924945       26.5878106605       11.3856191262
  H        44.6705748029       35.1163363945        7.8102467321
  H        24.4264381528        3.0320028619       12.0998383916
  H        25.5599784882        4.8628964720       13.3582799345
  H        23.1737383651        7.7651786416       11.2653849017
  H        22.0518912641        5.9220322346       10.0063790050
  H        23.8190332782        5.7841904710       14.8549600556
  H        44.9544936182       34.3898030542        9.6947038350
  H        44.8996721067       34.2056521197        6.4886617403
  H        40.6658048202       33.2105628478       10.8523806515
  H        23.1525740895        1.9580399372        8.0055208180
  H        25.8298219501       19.6162155790        3.8666758651
  H        23.6362486458       19.6877832273        2.6803341593
  H        22.3832635803       16.1593799950        4.7953581722
  H        24.5801266100       16.1049541942        5.9847502091
  H        23.7195354862       17.6404111379        1.2308675799
  H        35.0913109752       15.4782693844        3.9514003507
  H        37.2201689051       15.4177069545        2.6483065411
  H        38.6922215803       18.7623222973        4.9183066889
  H        36.5604986229       18.8024440827        6.2248281587
  H        37.2183916583       17.3898026312        1.2415770789
  H        20.3681264219       17.9565429758        4.6639656413
  H        35.2207175810       15.4528546245       12.0629958858
  H        37.3559202731       15.4034645668       13.3594458773
  H        38.7350099346       18.8575834207       11.1988686613
  H        36.5969336507       18.8847374103        9.8971486025
  H        37.2477657565       17.4086953593       14.7886232319
  H        35.1080807684       26.7345257215       11.4099188015
  H        28.4529175353       21.0720609506        8.4473397491
  H        25.7654916416       19.6030732969       12.1743589387
  H        23.5775066135       19.6682720460       13.3907768060
  H        22.2634111711       16.2135849202       11.1912656362
  H        24.4445595683       16.1804509928        9.9631320221
  H        23.6923975017       17.6355465124       14.7796857593
  H        29.0825972290       21.7474935277        9.7570932555
  H        28.9181230945       21.7369838973        6.5264178962
  H        32.1193037597       18.5167449487       11.0206773641
  H        27.3704286900       19.0336900234        8.0443884249
  H        14.8399139999       19.6493654271       12.1381819331
  H        17.0022592061       19.6980351453       13.3840725563
  H        18.2995174033       16.1931753577       11.2556664806
  H        16.1329758248       16.1597427832       10.0096758405
  H        16.9139147151       17.7036734326       14.8504036041
  H        46.0983556306       15.4592577905       12.0854002579
  H        43.9804085349       15.4191588434       13.4054138983
  H        42.5718757260       18.8507460876       11.2266677588
  H        44.6898417380       18.8652043320        9.8966632222
  H        44.0300470931       17.3538877877       14.8704986288
  H        20.2760119196       17.9376031849       11.4169259751
  H        46.0329332486       15.3799635249        4.0428248105
  H        43.8965197842       15.3106578523        2.7575195246
  H        42.4986773849       18.7630069162        4.9087078382
  H        44.6425956614       18.8196914878        6.1933509284
  H        44.0009033413       17.3114216520        1.3200053799
  H        46.1997943974       26.6828151396        4.6234034465
  H        52.7413251640       21.0627527429        8.1947153365
  H        14.8871677128       19.6765369532        3.9000224645
  H        17.0882824889       19.7467774196        2.7219307834
  H        18.3344325672       16.2223950325        4.8482076431
  H        16.1359509290       16.1765323503        6.0367717938
  H        16.9400037168       17.7141800981        1.2976991864
  H        52.3229710444       21.6734096118        6.2939696321
  H        52.0136822987       21.7025924399        9.4955787151
  H        49.0669468869       18.6070682826        5.2038999117
  H        13.2478000897       19.0161867605        7.9769876149
  H        29.9705682506       12.4212328758       12.1888744416
  H        28.9112607902       10.4847615381       13.3614424709
  H        25.2372077346       11.2236141213       11.2525834814
  H        26.3157285590       13.1484120339       10.0734875061
  H        27.2150522943       11.6521669629       14.7840835023
  H        30.9632105985       22.7870236871       12.0323826719
  H        31.9553290318       24.6781766631       13.3272049423
  H        35.6326333967       24.2285906814       11.1409692817
  H        34.6127906568       22.3579740492        9.8284539059
  H        33.6129224175       23.6223168229       14.7491297501
  H        25.6959395650        8.5859043521       11.4169242020
  H        30.8764103954       22.7135283646        3.9578825187
  H        31.8841677832       24.5889153550        2.6570874407
  H        35.5597288958       24.1157321178        4.8406767220
  H        34.5378542442       22.2387998710        6.1365480143
  H        33.5795142997       23.5946158193        1.2007523096
  H        40.5675097377       17.0415553297        4.6719783290
  H        32.5125918878       14.1384874010        8.3424291946
  H        29.9440797185       12.6087799828        3.8514632996
  H        28.9483409217       10.6629936213        2.6445125398
  H        25.2986411306       11.1608335225        4.8649762707
  H        26.3200767583       13.0813719178        6.0895356667
  H        27.2398095496       11.6694121360        1.2333948064
  H        33.2866227436       14.1906180616        6.4414328404
  H        33.4067136660       14.4512991684        9.6531164015
  H        32.1586978421       18.5387118235        5.2118603417
  H        30.2315197739       14.1892332732        8.0701519801
  H        16.1198254975        2.9618430500       12.1314558522
  H        14.9539716922        4.8189598792       13.3236416468
  H        17.3645976778        7.6847399861       11.2088466264
  H        18.5133084555        5.8173241273       10.0091503797
  H        16.7533500852        5.7389419070       14.7716206038
  H        44.8275249735       32.1404934188       11.9775722350
  H        45.9367165443       30.3415957203       13.3068855982
  H        43.6823015574       27.3784468345       11.1522594872
  H        42.5995075491       29.1904146382        9.8098092396
  H        44.2299258880       29.4367250166       14.7691871181
  H        14.8507883720        8.5451564363       11.3630725058
  H        44.8994319253       32.2341879921        3.9314767804
  H        46.0243662935       30.4132126582        2.6519945622
  H        43.7646380585       27.4841561406        4.8464824706
  H        42.6468133542       29.3178752064        6.1255684235
  H        44.2682890355       29.4704699894        1.2184517935
  H        35.0096789992       26.6213993051        4.6499518335
  H        36.6077581067       35.1348800638        8.1847603699
  H        16.1435995802        3.0128306242        3.9043679453
  H        14.9740584947        4.8560874634        2.6884814598
  H        17.3958234811        7.7471754691        4.7553839054
  H        18.5429272038        5.8934218640        5.9830304502
  H        16.7645924667        5.7552179773        1.2193385548
  H        36.2784014597       34.4833346933        6.2735459572
  H        36.3861072351       34.2074035221        9.4995347100
  H        40.5778342920       33.2021535071        5.1537243680
  H        17.4761463417        1.9464112379        7.9767285346
  H        29.9008410865       19.4138846961        3.1392055166
  H        31.1313499182       16.5671594067        3.9477297941
  H        31.2635955474       15.6673770990       12.6108635820
  H        28.1370017551       18.0868038761       14.5330538733
  H        29.4774443445       15.4387476057       14.4979782992
  H        31.4971606405       20.0438401581        1.7496775679
  H        33.0393332769       16.9148937933        1.8074484677
  H        28.6987368474       16.7708371706        0.7159955963
  H        32.4522168253       18.5105552639       15.6992189008
  H        18.9045671189        0.8519095821       12.3627190736
  H        40.5245388556       35.2295962257        3.9512803487
  H        42.3251186561       34.4195787719        3.5893327021
  H        22.0969615972        0.6989697939       12.3431484701
  H        11.5971512896       18.7127176394       12.3821899488
  H        52.2649690003       18.4313418870        3.6769997795
  H        49.2552743309       16.4767781842        3.5841466911
  H        10.1503289015       15.7982013887       12.2927557105
  H        50.8502429332       17.6925384218        3.9541626388
  H        10.0463782692       17.3946139317       12.0518899332
  H        20.2923134531        0.0045757654       12.0340739193
  H        39.1818609762       36.1252359106        3.6889781347
 Ni        31.0323278092       17.6189132527        2.9162318860
 Ni        31.1149299508       16.4392115319        0.1665144343
 Ni        30.0089188803       18.8470603794        0.0029435703
 Ni        30.0952869946       17.5225988225       13.2386166040
  O        10.6498941276       14.3651382976        5.4858265041
  O        12.6131334705       14.6574686099        6.5838255127
  O        49.1478620966       16.8458806863        7.9895381647
  O        50.3503086140       20.9358227759        5.6479648712
  O        48.3485739391       20.5933132701        6.6658370588
  O        11.0516647159       17.0538693877        6.5005919399
  O        50.3207250602       20.8817010792       10.4068789155
  O        48.3466483664       20.5866985774        9.3270220680
  O        49.5441206003       18.2484384574       10.0680746947
  O        12.3592151575       18.6246855444        7.9995047599
  O        48.6932153178       14.1486743869        6.7512613250
  O         8.2098998843       14.2104197572        9.3225222633
  O        10.7353888225       14.5066868960       10.6643064540
  O        12.5718067158       14.5827784271        9.3285066178
  O        22.8460229236        2.0450513082        5.4864790882
  O        21.6086082586        3.5945795848        6.5869928446
  O        42.0594461785       34.1371687891        7.9764246358
  O        37.9811969668       33.1364291347        5.5728904065
  O        39.2173428944       31.5749257866        6.6661031295
  O        20.3093706740        1.0402753200        6.5019562898
  O        38.0263605187       33.1884760730       10.4155566507
  O        39.2181525167       31.5834326086        9.3282001067
  O        40.6544985936       33.7685655260       10.0578108703
  O        18.2604539610        1.3745672910        7.9981878764
  O        44.6227733379       35.1003057379        6.7567146832
  O        24.2068484523       -0.0001080943        9.3202512839
  O        22.7532799403        2.0568176779       10.5838971946
  O        21.6259140498        3.5973032037        9.3451560144
  O        27.5870270075       18.6072328348        5.3308844047
  O        26.7612759371       16.9351617956        6.6394404064
  O        30.6697186321       19.4023207450        8.1427946270
  O        33.5227881466       16.3289317147        5.6472599573
  O        34.2701033086       18.1748122221        6.7434570479
  O        29.5784234459       17.0717401508        6.5843204014
  O        33.6203155978       16.3293477762       10.4159562786
  O        34.3089454740       18.2465108948        9.4070709509
  O        31.7267000017       18.3089440951       10.1551612892
  O        30.3259485549       15.1559050427        8.0950768816
  O        28.5070910495       20.9447991036        6.9085779453
  O        28.4725985422       21.0351173478        9.4912474921
  O        27.4386454636       18.6741568762       10.6590787101
  O        26.6917409296       16.9218634081        9.4117778054
  O        13.1465192609       18.6935216853       10.5867990428
  O        13.9185195386       16.9163541166        9.4046782754
  O        50.5961952298       19.3501968301        8.0197321246
  O        47.6833916927       16.3272012313       10.4174180533
  O        46.9519451293       18.1760308605        9.3244624935
  O        11.0698097819       17.0154697278        9.4894783297
  O        47.6740286111       16.3357416701        5.6528844931
  O        46.9253144781       18.2359376772        6.6637756380
  O        49.5685602360       18.3176617243        5.9820439580
  O        10.3186822000       15.1001550654        7.9970576566
  O        52.6707175197       21.0279446324        9.2417796485
  O        12.1468799176       20.8911821609        6.6731808065
  O        13.1091439915       18.6135298994        5.3254896761
  O        13.9573482515       16.9869458043        6.6653316684
  O        29.9933099351       14.4420093027       10.7350280431
  O        28.0903759375       14.6529038657        9.4948542229
  O        32.1359005411       16.8531399559        8.0991887948
  O        30.9513416670       20.9611792463       10.4183179792
  O        32.9207297872       20.6588608837        9.3302797148
  O        29.5768445994       17.0672214838        9.5843947399
  O        30.8536641617       20.8824605142        5.6519901606
  O        32.8698449901       20.5875468221        6.6662307770
  O        31.6634546436       18.2642310798        6.0020665704
  O        28.2524550193       18.6297788205        8.0826701619
  O        32.4946315744       14.2131823516        9.3976984620
  O        32.3982145557       14.2180787314        6.8329415442
  O        29.9154697342       14.5833308401        5.4141226706
  O        28.0581966921       14.5934049978        6.7396707704
  O        17.8899506242        1.9655456089       10.6633863907
  O        18.9564846424        3.5266530913        9.4082205506
  O        39.1693176346       34.1392448076        7.9993108905
  O        43.2804062613       33.0593502298       10.3313414899
  O        42.0344611248       31.5066372523        9.2414551246
  O        20.3221429206        1.0381810908        9.4784040915
  O        43.2760894901       33.1827148499        5.5747782683
  O        42.0051354748       31.5842360114        6.5829545078
  O        40.5787469903       33.7750430348        5.9356783084
  O        22.3689042591        1.3855121501        7.9969609421
  O        36.6742505918       35.0999221237        9.2356934530
  O        16.4462390364        0.0648701609        6.6680453140
  O        17.9364936851        2.0432775824        5.3267083042
  O        18.9193321516        3.5931291881        6.6659830566
  O        29.7720299705       18.7598059616        3.9185850875
  O        29.8320111246       18.8282828479       11.9798986819
  O        31.2629495728       16.4830798886       12.0723306258
  O        32.1357136561       16.5583572374        1.8296911925
  O        29.4855308032       17.2181479971        1.0773141156
  O        30.2893829879       15.9695001307       14.4772036073
  O        31.6916867803       18.1057910280       15.2438183364
  O        30.7571592295       19.4156883515        1.7519923145
  O        28.9847727971       18.5456880398       14.4150128583
  O        39.4555151455       35.2438918217        4.0021921974
  O        19.2010235569        0.0039074343       11.9878223815
  O        41.9700312250       35.1726439030        4.0866639008
  O        21.7009175683       -0.0690032932       11.8978451355
  O        51.3651673349       18.6143226471        4.0053499387
  O        10.7512188852       18.7470991219       11.9048912667
  O        50.0794982873       16.4127620832        4.0917444926
  O         9.5245093792       16.4831077285       11.9912141634
 Zr         9.2973340784       16.0528813910        6.1823974875
 Zr        49.8370009491       16.0065930846        9.7463311830
 Zr        22.0727099207        0.0316695246        6.1855835345
 Zr        42.4637524492       35.1524243345        9.7913428714
 Zr        29.6057854897       19.1855563648        6.4625937432
 Zr        29.5898520516       19.1112418528       10.1263562750
 Zr        11.0381925626       19.0519988137        9.8275242000
 Zr        11.0446748843       19.1547339845        6.2506468237
 Zr        31.3340683847       16.1165164267        9.9358088435
 Zr        31.3952908437       16.0431938040        6.3745065637
 Zr        18.6076435621        0.0014954241        9.7750211376
 Zr        18.5064603545       -0.0082652546        6.2171170603
 Zr        12.3027075523       16.3234806572        7.9901114993
 Zr        48.6169982212       18.8331298101        8.0095901563
 Zr        20.3164453504        2.4756388353        7.9895488472
 Zr        40.6413370015       32.6877591262        7.9776362470
 Zr        28.3463836923       16.3570730880        8.0837552780
 Zr        32.6219491648       18.8602596981        8.0949820522
  H        28.8403685670       18.4242498403        3.9036483825
