     576
 i =      197, E =     -4780.0042972928
  C        11.8589411507       14.0544436193        5.7408036432
  C        12.4557715070       12.8903189680        5.0239377211
  C        11.7045941439       12.1720982173        4.0813622826
  C        12.2808236932       11.1095680571        3.3894067297
  C        13.6214409364       10.7397466134        3.6169096467
  C        14.3543777492       11.4432625827        4.5906108012
  C        13.7816403188       12.5085721833        5.2817303608
  C        14.2609206887        9.6490381986        2.8435806236
  C        14.2563436059        9.6571769759        1.4219120855
  C        13.7428922132       10.7591676308        0.6680151855
  C        49.1268911769       21.2324594355        5.8789729831
  C        48.5509216765       22.4016142889        5.1533912133
  C        49.3003704999       23.0678354058        4.1712112366
  C        48.7338509533       24.1077607472        3.4387957241
  C        47.4031048168       24.5090693141        3.6669226901
  C        46.6726524932       23.8611369881        4.6814021774
  C        47.2347201128       22.8155114400        5.4099668356
  C        46.7732921543       25.5872595137        2.8700375659
  C        46.7622656586       25.5576596789        1.4482991240
  C        47.2617437693       24.4423621938        0.7048049641
  C        14.8602337020        8.5708947672        0.7085547302
  C        14.8920735208        8.5973205708        3.5202358098
  C        49.1137292099       21.2041641908       10.1448878626
  C        48.5274521179       22.3641034198       10.8734368777
  C        49.2671637228       23.0255451242       11.8654901325
  C        48.6906757642       24.0599767440       12.5970260406
  C        47.3601675248       24.4567778440       12.3591713509
  C        46.6398773371       23.8117276360       11.3356337807
  C        47.2134373854       22.7760070304       10.6035947864
  C        46.7212876218       25.5315997866       13.1501036894
  C        46.7342015932       25.5285166209       14.5717936787
  C        47.2489907829       24.4289163062       15.3280486482
  C        40.6350844451       17.1458228784       15.3090139332
  C        40.6501361331       17.1484578512       12.5000838299
  C        11.8826281347       14.0860354492       10.2845084224
  C        12.4724994405       12.9114089101       10.9901058837
  C        11.7148995319       12.1775354657       11.9155938564
  C        12.2813591100       11.0951230531       12.5841431765
  C        13.6202133444       10.7214119761       12.3524562265
  C        14.3582618224       11.4371598341       11.3918300687
  C        13.7927112253       12.5182410850       10.7190913466
  C        14.2538608395        9.6247127046       13.1228576621
  C        14.2524789203        9.6448630846       14.5446599602
  C        13.7423573441       10.7536675407       15.2917767489
  C        22.5124522298        3.2445698340        5.7530803650
  C        23.2288244256        4.3490379038        5.0540788330
  C        24.2231423750        4.0673055818        4.1055484030
  C        24.8519580238        5.1060713711        3.4240370194
  C        24.5025177173        6.4486773523        3.6707176877
  C        23.5365266275        6.7215321826        4.6563701824
  C        22.9026478907        5.6847102825        5.3362336937
  C        25.1088731528        7.5551973724        2.8954272559
  C        25.0795894305        7.5471998587        1.4740909889
  C        24.3663386910        6.5550119113        0.7289970261
  C        38.2993265910       31.9367266954        5.8503943015
  C        37.5540906958       30.8541296085        5.1489206331
  C        36.6077089696       31.1680255761        4.1613487349
  C        35.9806199018       30.1537513020        3.4435661546
  C        36.2887097253       28.8016709759        3.6906087594
  C        37.2023200173       28.4961949261        4.7170783239
  C        37.8334861780       29.5090337065        5.4332204367
  C        35.6853607365       27.7117865799        2.8932379980
  C        35.7257652775       27.7200550442        1.4721211463
  C        36.4353290418       28.7197330241        0.7346047017
  C        25.7027467378        8.6165798165        0.7534447895
  C        25.7128807949        8.6270550713        3.5648864690
  C        38.3324953400       31.9612592578       10.1605472422
  C        37.6142851868       30.8867725181       10.9047023728
  C        36.6785122347       31.1944164630       11.9041533811
  C        36.0688005870       30.1752922643       12.6332157369
  C        36.3842473634       28.8233786140       12.3899681044
  C        37.3006987974       28.5254006157       11.3630775156
  C        37.9119107044       29.5410494409       10.6346141109
  C        35.7736696579       27.7249180343       13.1733674942
  C        35.7693442066       27.7270201730       14.5953670371
  C        36.4572483639       28.7222590615       15.3581054004
  C        46.1357946822       26.6209237021       15.2819807981
  C        46.0880096031       26.5803419831       12.4739911045
  C        22.4610961688        3.2558450849       10.2559575052
  C        23.1470162689        4.3652584184       10.9848571794
  C        24.1440708431        4.0811261781       11.9314773807
  C        24.7690394946        5.1125573443       12.6278862058
  C        24.4183897209        6.4583437264       12.3993571197
  C        23.4447141076        6.7358276195       11.4211625176
  C        22.8147829451        5.7044020121       10.7256159019
  C        25.0504476246        7.5562255250       13.1724174592
  C        25.0468562477        7.5502404328       14.5951825150
  C        24.3502538063        6.5561337855       15.3523407920
  C        26.6316935373       17.8260755959        5.7778803955
  C        25.3263433176       17.8882062486        5.0513578254
  C        25.0713605157       18.8831540671        4.0940997226
  C        23.8579582105       18.9105559367        3.4087340664
  C        22.8574565052       17.9504998249        3.6639423464
  C        23.1052424085       16.9829991036        4.6563968834
  C        24.3217560525       16.9482054794        5.3361903680
  C        21.5832514029       17.9378884143        2.9005909028
  C        21.5823497699       17.9116174133        1.4779384462
  C        22.7864349719       17.7794670464        0.7164256537
  C        34.5218105806       17.2948101841        5.9986344112
  C        35.8013856456       17.2261119106        5.2420961657
  C        35.9819639903       16.2481253785        4.2502356684
  C        37.1374544087       16.2357897440        3.4751582813
  C        38.1430948361       17.2005696928        3.6762355320
  C        37.9662386861       18.1585891670        4.6928889292
  C        36.8021895440       18.1835963015        5.4554236512
  C        39.3894302265       17.1955355573        2.8815366160
  C        39.3794444375       17.1984166888        1.4610155779
  C        38.1718850352       17.3259474731        0.7046967215
  C        20.3348078002       17.9257972909        0.7705685834
  C        20.3584465865       17.9477937307        3.5835302949
  C        34.4777406517       17.2436497250       10.1808789562
  C        35.7797995464       17.1717336322       10.8996989292
  C        35.9866783052       16.1966038929       11.8860879278
  C        37.1714076986       16.1819779861       12.6151570083
  C        38.1764291011       17.1373029320       12.3714832848
  C        37.9746294801       18.0875211862       11.3538754893
  C        36.7873430610       18.1085740695       10.6283096181
  C        39.4212142944       17.1575415025       13.1672472753
  C        39.3975770363       17.1805693061       14.5876754886
  C        38.1809268811       17.3207142810       15.3275295488
  C        35.1352078397       26.6505295009       15.3002236257
  C        35.1895147713       26.6504305532       12.4908557422
  C        26.5734878859       17.8225117033       10.3235265212
  C        25.2590778195       17.8653733811       11.0325647875
  C        24.9981410339       18.8640248033       11.9829840940
  C        23.7787674156       18.8903628385       12.6545405174
  C        22.7939156567       17.9135256507       12.4044919697
  C        23.0519144988       16.9357976759       11.4267840419
  C        24.2713024124       16.9089126482       10.7524236702
  C        21.5304637067       17.8927983726       13.1780022384
  C        21.5538545329       17.8847667036       14.5994904001
  C        22.7728957551       17.7681791689       15.3401364338
  C        14.0484290976       17.8302805744       10.2874290300
  C        15.3508641630       17.8804950626       11.0184286915
  C        15.6079708964       18.8805272561       11.9692878865
  C        16.8171806222       18.8983660187       12.6621494111
  C        17.8034589917       17.9189370427       12.4273128699
  C        17.5518216715       16.9448188543       11.4426173658
  C        16.3421176086       16.9219589946       10.7512303742
  C        19.0739266166       17.9010939563       13.1945188768
  C        19.0732452955       17.8990759323       14.6171456401
  C        17.8673538673       17.8007840463       15.3801840442
  C        46.8057461114       17.2154182383       10.1555603822
  C        45.5163515980       17.1512871087       10.8993026875
  C        45.3077187038       16.1645027938       11.8752508432
  C        44.1260547773       16.1435883421       12.6107013895
  C        43.1241339419       17.1077456843       12.3885079502
  C        43.3278490495       18.0715753304       11.3828392302
  C        44.5095911939       18.0957261439       10.6478104312
  C        41.8735646685       17.1266086656       13.1781012785
  C        41.8811759317       17.1321490983       14.5993921982
  C        43.0920229921       17.2147165380       15.3557849715
  C        20.3199711161       17.9124174447       15.3253982461
  C        20.2980480240       17.8822761999       12.5118087038
  C        46.7859546698       17.2344252717        5.8882674874
  C        45.4839448813       17.1423939875        5.1697693433
  C        45.2546169333       16.1421222998        4.2132954489
  C        44.0685397983       16.1295287801        3.4842697907
  C        43.0834912302       17.1131689545        3.6952595396
  C        43.3031724251       18.0853546335        4.6888682362
  C        44.4897305095       18.1035763459        5.4147123553
  C        41.8406375130       17.1444586058        2.8956616414
  C        41.8635081381       17.1434186943        1.4749621044
  C        43.0838005630       17.2188419393        0.7325821172
  C        46.1537223441       26.6373747336        0.7267519098
  C        46.1637079628       26.6564203253        3.5364116302
  C        14.0467341321       17.8331528189        5.7093192144
  C        15.3704678706       17.9114496361        5.0224675126
  C        15.6410635544       18.9227335275        4.0884706756
  C        16.8715637271       18.9631333436        3.4361733340
  C        17.8568732709       17.9867155977        3.6863631848
  C        17.5937381126       17.0050968626        4.6592381479
  C        16.3650562785       16.9642165310        5.3147527976
  C        19.1251014000       17.9611037617        2.9179153731
  C        19.1000770760       17.9300498295        1.4962724126
  C        17.8802582804       17.8152145473        0.7563561650
  C        28.8083136563       14.0887948081       10.3884408084
  C        28.1925213262       12.9146682411       11.0741316405
  C        28.9218255959       12.1630508384       12.0072044163
  C        28.3227994650       11.0875885743       12.6583940615
  C        26.9804889529       10.7414860816       12.4032371027
  C        26.2722095795       11.4764414727       11.4357725694
  C        26.8687033141       12.5513113234       10.7810455648
  C        26.3110819929        9.6631335535       13.1667501858
  C        26.3082032358        9.6866289537       14.5879417129
  C        26.8275837921       10.7928928921       15.3327272327
  C        32.1808260877       21.2445499947       10.1435380793
  C        32.7805679055       22.4064913409       10.8667255277
  C        32.0278052215       23.0958627733       11.8300234773
  C        32.5991198437       24.1329727827       12.5614368512
  C        33.9407293817       24.5069741828       12.3516575054
  C        34.6773168127       23.8370579397       11.3566602049
  C        34.1069631402       22.7950604307       10.6273153106
  C        34.5683229135       25.5844875639       13.1509137448
  C        34.5449771156       25.5654929635       14.5727750192
  C        34.0274125917       24.4561240784       15.3134257591
  C        25.6946028170        8.6121537194       15.3085318671
  C        25.6666542813        8.6167230953       12.4942365195
  C        32.1035805968       21.2350280722        5.8951804656
  C        32.6830547236       22.3978843330        5.1599354387
  C        31.9418775429       23.0559433251        4.1656745107
  C        32.5154411814       24.0866181291        3.4245997465
  C        33.8432359278       24.4924146863        3.6620995127
  C        34.5643146886       23.8546508610        4.6902824958
  C        33.9958994196       22.8172793101        5.4252147035
  C        34.4767351318       25.5745503203        2.8734308996
  C        34.4999809055       25.5588963982        1.4511627631
  C        34.0032307351       24.4539861579        0.6903138225
  C        40.6254061448       17.1513046266        0.7526830381
  C        40.6118392876       17.1880901714        3.5612084715
  C        28.7455853840       14.0720729290        5.8186741119
  C        28.1376616878       12.9221077842        5.0822074497
  C        28.8804250912       12.2202979504        4.1205670182
  C        28.3031222658       11.1622710925        3.4217715596
  C        26.9674003389       10.7806295307        3.6597332706
  C        26.2414275768       11.4696094002        4.6494191545
  C        26.8180195333       12.5266729699        5.3510451721
  C        26.3265781984        9.6885937589        2.8870826262
  C        26.3191909099        9.6982848945        1.4649536357
  C        26.8286341987       10.8006277440        0.7088503983
  C        18.1327151946        3.1805364820       10.3146190286
  C        17.4081697880        4.2782064198       11.0176592139
  C        16.3900674357        4.0001639398       11.9426424876
  C        15.7432925931        5.0399897841       12.6073232730
  C        16.0941870053        6.3837829312       12.3666234763
  C        17.0844803087        6.6532513320       11.4037978599
  C        17.7324448458        5.6158479645       10.7377051293
  C        15.4704291727        7.4914618374       13.1301899709
  C        15.4856777641        7.4909189831       14.5518961070
  C        16.1875206748        6.4975066109       15.3050275096
  C        42.9460324703       31.8594178942       10.0724484722
  C        43.6459202337       30.7718621249       10.8171466701
  C        44.5917350388       31.0932366821       11.8029342162
  C        45.1974399364       30.0877503524       12.5507149704
  C        44.8709914123       28.7346457427       12.3361270079
  C        43.9448270561       28.4202647446       11.3232238943
  C        43.3360525531       29.4253476992       10.5750522275
  C        45.4880369906       27.6550144999       13.1393417088
  C        45.4934057633       27.6812670276       14.5610540405
  C        44.8064611502       28.6893441969       15.3077872873
  C        14.8566387646        8.5634371578       15.2641478989
  C        14.8751652554        8.5632270364       12.4515845114
  C        42.9465155041       31.9616508948        5.8095036207
  C        43.6910868697       30.8856896999        5.0950569290
  C        44.6568061402       31.1916217560        4.1238818027
  C        45.2786537661       30.1722652085        3.4061033493
  C        44.9550750937       28.8218724053        3.6435394502
  C        44.0215235158       28.5240232067        4.6541887121
  C        43.3930221441       29.5406412636        5.3663928465
  C        45.5638538674       27.7242056489        2.8584960831
  C        45.5348924661       27.7181305654        1.4371498596
  C        44.8277936617       28.7078273837        0.6841907667
  C        35.1090625085       26.6492949311        0.7452998698
  C        35.0808161355       26.6372985327        3.5549333530
  C        18.1473214031        3.2473474812        5.7076858627
  C        17.4308127411        4.3442898927        4.9965007783
  C        16.4145889258        4.0529220182        4.0741057468
  C        15.7668076559        5.0835357147        3.3982065044
  C        16.1210450009        6.4288145589        3.6213700970
  C        17.1128778584        6.7121586326        4.5781752253
  C        17.7600958489        5.6833156653        5.2584837885
  C        15.4909221065        7.5244586233        2.8485442068
  C        15.4968741271        7.5080389811        1.4274128797
  C        16.1936480350        6.5062594262        0.6808259389
  H        10.6723303934       12.4659041553        3.9046491789
  H        11.6946139332       10.5511713995        2.6627239443
  H        15.3914529642       11.1686727035        4.7722110974
  H        14.3510106211       13.0714220615        6.0175014344
  H        13.3755845513       11.6311736348        1.2013068783
  H        50.3231739051       22.7479717093        3.9866813601
  H        49.3201201242       24.6225134096        2.6806737133
  H        45.6431300102       24.1619112226        4.8644149384
  H        46.6639788516       22.2909737141        6.1727359744
  H        47.6301867851       23.5759512909        1.2465319175
  H        14.8722313111        8.5885994748        4.6085534933
  H        50.2872000354       22.7028027117       12.0606393626
  H        49.2689214135       24.5755325977       13.3605816884
  H        45.6104023371       24.1087446368       11.1466214307
  H        46.6524749119       22.2536430966        9.8322815996
  H        47.6078384872       23.5518026899       14.7971825645
  H        40.6539682235       17.1083170079       11.4125020403
  H        48.6869357930       14.0951440375        7.8001413523
  H        10.6813947868       12.4664751590       12.0929481136
  H        11.6896076349       10.5245408117       13.2967252155
  H        15.3937507495       11.1593330111       11.2060335690
  H        14.3651344534       13.0877173216        9.9907271039
  H        13.3753577771       11.6221703198       14.7530885607
  H        47.9302688730       14.2183802207        9.7105311287
  H        47.7799022973       14.3737276356        6.4956102533
  H        49.0839926096       18.5527165765       10.8675160697
  H        10.4163247989       14.1344417589        7.9983677209
  H        24.4805141743        3.0281422684        3.9129272485
  H        25.6226729705        4.8872818048        2.6881507201
  H        23.2590572050        7.7549388763        4.8535198271
  H        22.1343803550        5.8860163180        6.0788201798
  H        23.8041762749        5.8001992000        1.2709676130
  H        36.3881662539       32.2137408195        3.9591325502
  H        35.2466146614       30.3996894725        2.6792691766
  H        37.4445686381       27.4543285265        4.9157083685
  H        38.5658046823       29.2824132075        6.2043937682
  H        36.9960803978       29.4730013878        1.2801485938
  H        25.7468606943        8.6106541973        4.6527169341
  H        36.4465856031       32.2379981797       12.1046693888
  H        35.3362464248       30.4189424153       13.3995144660
  H        37.5575231988       27.4860126214       11.1693366236
  H        38.6412864441       29.3164338010        9.8602107939
  H        37.0342241376       29.4779482778       14.8328051049
  H        46.1087485322       26.5873283028       11.3859332663
  H        44.6681537576       35.1162620354        7.8140884822
  H        24.4194110486        3.0430391693       12.1033642185
  H        25.5453467712        4.8849194721       13.3552009249
  H        23.1621123861        7.7701452251       11.2358988339
  H        22.0474342351        5.9160225827        9.9845312215
  H        23.7719441213        5.8045726044       14.8228578682
  H        44.9537856877       34.3904343245        9.6954036328
  H        44.9016337037       34.2066978898        6.4907121880
  H        40.6667843580       33.2095214529       10.8533031093
  H        23.1504940363        1.9581322088        8.0061877410
  H        25.8296159795       19.6388609438        3.9017129477
  H        23.6680476642       19.6877012452        2.6714779087
  H        22.3442908887       16.2344551827        4.8676257091
  H        24.5227060977       16.1873681093        6.0869115344
  H        23.7275428306       17.6592610778        1.2449846522
  H        35.2072656795       15.4990887356        4.0997196448
  H        37.2776095261       15.4792228524        2.7053762638
  H        38.7341796083       18.9138933528        4.8467869169
  H        36.6377041596       18.9381719679        6.2209112782
  H        37.2335419434       17.4628554258        1.2351969374
  H        20.3651720033       17.9935234343        4.6711617626
  H        35.1982411035       15.4729572247       12.0794961641
  H        37.3350300870       15.4254263254       13.3792893942
  H        38.7455772830       18.8312832292       11.1640870361
  H        36.6055360377       18.8581867345        9.8617916330
  H        37.2507967992       17.4552948055       14.7823428047
  H        35.1722524526       26.6690461220       11.4028272816
  H        28.5159171974       21.0896279835        8.0073151416
  H        25.7630517936       19.6138978442       12.1733941139
  H        23.5747250718       19.6712273994       13.3840086259
  H        22.3016982524       16.1723593697       11.2307843041
  H        24.4863418663       16.1437447223       10.0103040221
  H        23.7030365129       17.6388981841       14.7949510230
  H        28.9890472056       21.7235027899        9.7702640011
  H        29.1285840504       21.7562673343        6.6074641389
  H        32.0895860361       18.5463289687       10.9931853875
  H        27.4069662706       19.0805277051        8.0737252259
  H        14.8495683743       19.6388630340       12.1507153603
  H        17.0116293404       19.6793208510       13.3941618646
  H        18.3025162383       16.1806420080       11.2516058479
  H        16.1364261543       16.1555097509       10.0077219954
  H        16.9244929336       17.6820233994       14.8542362479
  H        46.0904107815       15.4309423452       12.0536681536
  H        43.9638036707       15.3729561666       13.3611732453
  H        42.5603348207       18.8228690651       11.2087728715
  H        44.6856060752       18.8540486277        9.8884533485
  H        44.0351800559       17.3047416651       14.8245334776
  H        20.2901965207       17.9116300740       11.4237016718
  H        46.0210063949       15.3897181555        4.0424314067
  H        43.8899374920       15.3530497304        2.7437402721
  H        42.5473840227       18.8499638824        4.8573864826
  H        44.6811914086       18.8706689780        6.1610861050
  H        44.0203723058       17.3133775736        1.2743338235
  H        46.2005550881       26.6828530504        4.6238660226
  H        52.7410415946       21.0627165340        8.1949987147
  H        14.8788799774       19.6739673826        3.8935166859
  H        17.0800117093       19.7509823858        2.7155009308
  H        18.3458973645       16.2454697167        4.8620852833
  H        16.1463729210       16.1924853049        6.0488396633
  H        16.9473677735       17.7077125248        1.3014865921
  H        52.3221137692       21.6731323769        6.2944485807
  H        52.0131994600       21.7018715685        9.4956435012
  H        49.0686289509       18.6084912851        5.2043396217
  H        13.2478804633       19.0164798781        7.9777445385
  H        29.9563093700       12.4348455008       12.2054297288
  H        28.8898895699       10.5010881913       13.3781372815
  H        25.2347805670       11.2200160858       11.2311762160
  H        26.3212326669       13.1389054676       10.0481993139
  H        27.2007489564       11.6564687384       14.7904477963
  H        30.9971536221       22.7925483606       11.9989924992
  H        32.0099133052       24.6676263894       13.3034511349
  H        35.7157836434       24.1160507253       11.1894888629
  H        34.6805491521       22.2511721648        9.8802635692
  H        33.6693202886       23.5873701381       14.7684778269
  H        25.6912702887        8.5988408380       11.4060477382
  H        30.9196314164       22.7364625330        3.9762659491
  H        31.9349702193       24.5961092388        2.6584079267
  H        35.5905557179       24.1609210068        4.8831020043
  H        34.5595921878       22.2992803136        6.1978357361
  H        33.6293199065       23.5821192706        1.2195209454
  H        40.6018335238       17.1570906057        4.6489666765
  H        32.5192068849       14.1476239969        8.2615028007
  H        29.9099630089       12.5212516225        3.9387042842
  H        28.8864586952       10.6130719320        2.6859337359
  H        25.2075208834       11.1884664248        4.8388729459
  H        26.2545436969       13.0748682541        6.1025702727
  H        27.2025022648       11.6707721113        1.2406046375
  H        33.2929422987       14.1774683997        6.4341528826
  H        33.4106627455       14.4040588389        9.6145722575
  H        32.1358749034       18.6011135784        5.1614923526
  H        30.2204669141       14.1935600705        8.0705826126
  H        16.1187769149        2.9636656654       12.1301214687
  H        14.9535327815        4.8207058939       13.3226649270
  H        17.3665745832        7.6861302875       11.2102405723
  H        18.5153337084        5.8184292274       10.0107695634
  H        16.7540937145        5.7402307448       14.7714768297
  H        44.8282273213       32.1403001930       11.9769745992
  H        45.9375044890       30.3414762296       13.3064788980
  H        43.6818569170       27.3782340503       11.1532692113
  H        42.5993341972       29.1900068249        9.8104931025
  H        44.2308824919       29.4370332421       14.7695871385
  H        14.8511634970        8.5465369750       11.3633689396
  H        44.8999608057       32.2343318197        3.9321303287
  H        46.0256287743       30.4135786370        2.6529648845
  H        43.7647709611       27.4842260556        4.8457185350
  H        42.6460779951       29.3175617366        6.1243147921
  H        44.2697607278       29.4710353413        1.2188156863
  H        35.0330592817       26.6547452307        4.6420917186
  H        36.6054288676       35.1344945596        8.1801772827
  H        16.1437068301        3.0133452422        3.9040624856
  H        14.9743831815        4.8568263495        2.6881923328
  H        17.3964063697        7.7475927711        4.7552320046
  H        18.5433316444        5.8935568232        5.9829111455
  H        16.7653324691        5.7561878637        1.2192173683
  H        36.2789246140       34.4833599200        6.2732797365
  H        36.3805954415       34.2090398608        9.4991134226
  H        40.5799299054       33.2026363171        5.1538633867
  H        17.4707007747        1.9479432255        7.9748028494
  H        29.0448516310       19.2181086663       12.5227802377
  H        29.8659437747       19.6983467267        3.1602789793
  H        32.6785929973       16.3116742369        4.1562882177
  H        31.2551197727       15.5354322858       12.5256501996
  H        27.7682682448       18.1409226788       14.2771462226
  H        29.4908275747       15.2715896032       14.3724352664
  H        31.3921391185       19.4993001278        1.3866515390
  H        32.6467027263       14.8628372624        1.4400048763
  H        28.4179161422       16.6417336267        0.2751511065
  H        31.7311433168       19.1880981123       14.1819907684
  H        18.8542405366        0.8693110795       12.3351788757
  H        40.5282193261       35.2290297986        3.9521069512
  H        42.3235465298       34.4182523062        3.5912987530
  H        22.0879526915        0.6922873407       12.3515629993
  H        11.5971058744       18.7128241555       12.3826429275
  H        52.2648900462       18.4308265410        3.6771981971
  H        49.2548529959       16.4768928269        3.5847749170
  H        10.1500113336       15.7980727997       12.2930823508
  H        50.8499777560       17.6924883546        3.9544877241
  H        10.0460772744       17.3945032473       12.0519898790
  H        20.2155474727        0.0024184387       12.0418820606
  H        39.1838696485       36.1242900541        3.6851253887
 Ni        29.9660305790       17.6033260027        2.1728600534
 Ni        30.9913778834       16.1214696654        0.0872861426
 Ni        29.7129717509       18.9038757824       -0.3326712379
 Ni        30.2238538178       17.4573704203       13.2380757532
  O        10.6496692450       14.3644734954        5.4858672106
  O        12.6132031588       14.6572029043        6.5842380945
  O        49.1486366728       16.8458053765        7.9891909158
  O        50.3507816532       20.9359626191        5.6482026657
  O        48.3479983000       20.5937265121        6.6655587718
  O        11.0522072569       17.0544678668        6.5006465522
  O        50.3210233649       20.8821303654       10.4087771167
  O        48.3463367540       20.5868264513        9.3279706025
  O        49.5431155085       18.2470604780       10.0685210968
  O        12.3600576400       18.6231936835        7.9996015008
  O        48.6932833867       14.1485161936        6.7511755701
  O         8.2102424376       14.2101990276        9.3227725837
  O        10.7357680767       14.5065764627       10.6651869542
  O        12.5724339794       14.5833178070        9.3286728229
  O        22.8439947236        2.0429000917        5.4878895559
  O        21.6056793138        3.5910857487        6.5898690881
  O        42.0581810607       34.1378705371        7.9791383173
  O        37.9799260337       33.1459376542        5.5748584729
  O        39.2154326754       31.5788110407        6.6659722901
  O        20.3093710980        1.0403662084        6.5019284108
  O        38.0238340031       33.1852550674       10.4132922936
  O        39.2179259468       31.5840899299        9.3248552639
  O        40.6504935335       33.7696619449       10.0602485694
  O        18.2551470460        1.3764776033        7.9963720534
  O        44.6228911277       35.1007223337        6.7588365656
  O        24.2055436465        0.0000662771        9.3208667531
  O        22.7516800486        2.0582995205       10.5856125898
  O        21.6223311386        3.5960678001        9.3430924500
  O        27.5359861397       18.6918937415        5.4842097442
  O        26.7613621906       16.9256166172        6.6650866915
  O        30.6680804639       19.4114235179        8.0725643272
  O        33.6862410525       16.3606365193        5.8048748922
  O        34.3063129033       18.3031179522        6.7484291782
  O        29.5731032316       17.0639761972        6.5685364761
  O        33.6247671409       16.3260711969       10.4129576942
  O        34.3082071275       18.2496255422        9.4090626942
  O        31.6588592523       18.3144760022       10.1537589478
  O        30.3237624167       15.1588894196        8.0781701621
  O        28.5523698631       21.0325052377        6.9126726614
  O        28.5115104819       20.9583342711        9.4068230200
  O        27.4552002828       18.6786137770       10.6570983910
  O        26.6963355145       16.9259055721        9.4116289061
  O        13.1476301775       18.6903078606       10.5886053102
  O        13.9178671472       16.9149042067        9.4071531162
  O        50.5967828967       19.3497716423        8.0206983851
  O        47.6865039596       16.3267585076       10.4164696333
  O        46.9535321954       18.1758634631        9.3255831552
  O        11.0708823939       17.0159875961        9.4897190015
  O        47.6755719615       16.3369603194        5.6544431662
  O        46.9306480140       18.2368524903        6.6655230246
  O        49.5684716464       18.3161445009        5.9826739374
  O        10.3160348636       15.0999362891        7.9979552445
  O        52.6705623937       21.0274071350        9.2420698687
  O        12.1472341483       20.8913061804        6.6731357155
  O        13.1082082344       18.6138086013        5.3267023896
  O        13.9578129156       16.9876257121        6.6650125340
  O        29.9906203696       14.4341834655       10.7275854981
  O        28.0907146377       14.6545780671        9.4909611094
  O        32.1368150719       16.8719508543        8.0686565543
  O        30.9695930643       20.9585665951       10.4087579235
  O        32.9450103431       20.5953288606        9.3406063773
  O        29.5696397974       17.0744755212        9.5746569200
  O        30.8745289220       20.9443574456        5.6608309617
  O        32.8777092221       20.5857658501        6.6679120394
  O        31.6139008639       18.2558190273        5.9051852044
  O        28.2932435873       18.6840700382        8.0814365861
  O        32.4946484644       14.2144827138        9.3370269897
  O        32.4066797941       14.2176168648        6.8298647601
  O        29.9156526740       14.4475952347        5.4824699080
  O        28.0395198651       14.5891384521        6.7537167737
  O        17.8908289944        1.9666083273       10.6646302444
  O        18.9574107993        3.5276727644        9.4094187253
  O        39.1689369670       34.1384605011        7.9979495815
  O        43.2804937823       33.0585856302       10.3322922016
  O        42.0342679297       31.5067935781        9.2414700490
  O        20.3184523782        1.0364467565        9.4803591859
  O        43.2761700508       33.1824562143        5.5748137054
  O        42.0047024598       31.5833623420        6.5823865098
  O        40.5783914497       33.7751921522        5.9360293909
  O        22.3665256310        1.3860435286        7.9942670628
  O        36.6730082008       35.0996047222        9.2332666281
  O        16.4450685506        0.0654647257        6.6687309127
  O        17.9376997212        2.0439390784        5.3254180744
  O        18.9199293876        3.5931648036        6.6652979002
  O        29.4423108010       19.3515757039        3.9996093320
  O        29.8320353354       18.9883728346       11.9701877660
  O        31.7658876787       15.9713725819        4.1162692471
  O        31.3488671431       16.3491003470       11.9883203884
  O        32.2765599352       15.7720055842        1.5754683367
  O        29.2626196886       17.1068804491        0.4755000845
  O        30.3215073884       15.7674918180       14.3241592157
  O        31.3364803320       18.4082582977       14.6475878446
  O        30.4273216698       19.4155360019        1.4928492977
  O        28.5978728486       18.6113483896       14.1015664243
  O        39.4570027593       35.2440487574        4.0016995707
  O        19.1420328937        0.0048442344       11.9903817163
  O        41.9698622037       35.1730775505        4.0870096858
  O        21.6915197124       -0.0692537761       11.8961423807
  O        51.3650611662       18.6143432872        4.0049789387
  O        10.7514644393       18.7471814393       11.9049015988
  O        50.0794527283       16.4131135203        4.0918948704
  O         9.5246421840       16.4830999810       11.9909855561
 Zr         9.2975111230       16.0522695467        6.1822346272
 Zr        49.8371445734       16.0065767089        9.7465081054
 Zr        22.0734760096        0.0289007151        6.1886098088
 Zr        42.4613437925       35.1537370617        9.8006182882
 Zr        29.6223854587       19.1226439517        6.3607827010
 Zr        29.5775530251       19.1702122141        9.9148390973
 Zr        11.0371739033       19.0523273414        9.8276280162
 Zr        11.0432706661       19.1552249669        6.2512868690
 Zr        31.3581326486       16.0966475153        9.8870648692
 Zr        31.4040114551       15.9941069491        6.2622735183
 Zr        18.6010239983       -0.0004277822        9.7632522157
 Zr        18.5067274864       -0.0058317860        6.2143880307
 Zr        12.3012361714       16.3225031591        7.9898121041
 Zr        48.6169398526       18.8337770774        8.0109628876
 Zr        20.3145235386        2.4734704215        7.9912089192
 Zr        40.6441519856       32.6875582454        7.9778761057
 Zr        28.3618049720       16.3366936537        8.0919362666
 Zr        32.6386587911       18.8334692051        8.0799841692
  H        29.1089095743       16.5659374470        3.0932061916
  H        29.8982317592       16.2622798060        3.1421737028
  H        28.5027972986       19.1547035309        3.8307727095
  H        31.9490557326       15.7855707060        2.5710281561
