     571
 i =      231, E =     -4761.6028723177
  C        11.8590171546       14.0535714317        5.7415679650
  C        12.4565889877       12.8905898032        5.0234338547
  C        11.7048849181       12.1716768134        4.0817554995
  C        12.2812753167       11.1095024654        3.3893824029
  C        13.6218360725       10.7396838789        3.6171647589
  C        14.3550031066       11.4432548271        4.5906289953
  C        13.7821345425       12.5082500660        5.2821486972
  C        14.2613821091        9.6490560891        2.8437180636
  C        14.2568611742        9.6571180450        1.4220171579
  C        13.7438080863       10.7593249817        0.6681540801
  C        49.1272074133       21.2328986461        5.8795877273
  C        48.5506525100       22.4009700562        5.1524167511
  C        49.3006220365       23.0682267595        4.1713517720
  C        48.7337054538       24.1074701394        3.4382428918
  C        47.4032632077       24.5093320052        3.6670694950
  C        46.6723898310       23.8605229000        4.6806790844
  C        47.2348455207       22.8155776482        5.4099556938
  C        46.7729356224       25.5870541997        2.8698686877
  C        46.7617535955       25.5574709794        1.4481040736
  C        47.2616479367       24.4423980060        0.7045575472
  C        14.8608257789        8.5708223501        0.7087081368
  C        14.8920171370        8.5970016301        3.5203299562
  C        49.1134775562       21.2035989648       10.1454836501
  C        48.5281594550       22.3649641080       10.8727348879
  C        49.2674387586       23.0258666189       11.8654757172
  C        48.6910807571       24.0604461692       12.5969041399
  C        47.3605982231       24.4570633973       12.3587742300
  C        46.6401435946       23.8120111927       11.3353797406
  C        47.2137352572       22.7760897082       10.6036538721
  C        46.7220948579       25.5320419198       13.1497675566
  C        46.7338441579       25.5283688712       14.5714713915
  C        47.2492862355       24.4291240043       15.3278002933
  C        40.6418408534       17.1465266421       15.3066874140
  C        40.6470505532       17.1498556595       12.4983975829
  C        11.8832679231       14.0867158292       10.2853464685
  C        12.4728555916       12.9110607301       10.9896962901
  C        11.7155229729       12.1779428236       11.9160152541
  C        12.2822593313       11.0955978131       12.5844881804
  C        13.6210648063       10.7218966526       12.3525403866
  C        14.3588587929       11.4373723023       11.3915279777
  C        13.7932684899       12.5184202971       10.7187572030
  C        14.2546922407        9.6251253958       13.1229120868
  C        14.2533304991        9.6450191677       14.5447630642
  C        13.7434475150       10.7539283216       15.2918970884
  C        22.5127770258        3.2455378179        5.7541781904
  C        23.2277783396        4.3533036717        5.0582101532
  C        24.2284050592        4.0782946183        4.1143612749
  C        24.8538608233        5.1212109335        3.4356000749
  C        24.4945672083        6.4616761382        3.6802070169
  C        23.5227435893        6.7282540915        4.6618031417
  C        22.8928660819        5.6872710918        5.3390312227
  C        25.0943613360        7.5717609949        2.9043321184
  C        25.0623813298        7.5644009941        1.4828399063
  C        24.3637364284        6.5609722887        0.7389370417
  C        38.2955903663       31.9264839817        5.8528682053
  C        37.5482691127       30.8369499174        5.1557385829
  C        36.5787073481       31.1436353543        4.1880218517
  C        35.9432540076       30.1261079708        3.4805571869
  C        36.2606183339       28.7735830130        3.7158942685
  C        37.1983512319       28.4742748756        4.7226537705
  C        37.8378296061       29.4909466983        5.4297789472
  C        35.6494181377       27.6861724291        2.9135586838
  C        35.6971798963       27.7025492427        1.4912960721
  C        36.4118840089       28.7051258928        0.7622204817
  C        25.6762232702        8.6382556938        0.7610979518
  C        25.6874941191        8.6501424982        3.5732735737
  C        38.3317620343       31.9614075316       10.1614531213
  C        37.6174394873       30.8895040241       10.9143932317
  C        36.6844707287       31.2010720957       11.9155556696
  C        36.0750140418       30.1856917981       12.6507154896
  C        36.3834795160       28.8319079013       12.4089000826
  C        37.2988282852       28.5301937225       11.3816200255
  C        37.9099198505       29.5420880812       10.6474753384
  C        35.7659202190       27.7338533084       13.1890400514
  C        35.7561540464       27.7275339376       14.6117617886
  C        36.4384610119       28.7182373474       15.3855176036
  C        46.1357610993       26.6209343241       15.2816530665
  C        46.0880060226       26.5803469557       12.4737515273
  C        22.4595157209        3.2568812025       10.2598176337
  C        23.1488452161        4.3670305709       10.9861281473
  C        24.1471438058        4.0840391761       11.9320475238
  C        24.7700971599        5.1159675103       12.6304148397
  C        24.4155424567        6.4614929539       12.4057943008
  C        23.4400031673        6.7375744447       11.4287720592
  C        22.8122452399        5.7059924235       10.7311978432
  C        25.0423095096        7.5627062443       13.1799995797
  C        25.0360180219        7.5590232396       14.6031956097
  C        24.3489439763        6.5595708978       15.3621177353
  C        26.7521274308       17.8773534697        5.6555475623
  C        25.4434095330       17.9645640158        4.9353920191
  C        25.1836598273       18.9462938608        3.9660629601
  C        23.9414542536       18.9966475229        3.3300893505
  C        22.9229644217       18.0675184753        3.6337694761
  C        23.1840018116       17.1096657915        4.6320925820
  C        24.4218224461       17.0566881232        5.2685911083
  C        21.6294385080       18.0513331035        2.8984601185
  C        21.6109159292       17.9911125890        1.4765899878
  C        22.8067666321       17.8386137405        0.7055771410
  C        34.5367152910       17.2968045037        6.0006141809
  C        35.8182053598       17.2464726852        5.2402591909
  C        36.0235090301       16.2413853519        4.2820605454
  C        37.1806725944       16.2312997026        3.5097394687
  C        38.1682418996       17.2181260916        3.6868034947
  C        37.9691102266       18.2042235552        4.6712144581
  C        36.8035387963       18.2257710463        5.4331169229
  C        39.4114578155       17.2100797844        2.8853048167
  C        39.3963062419       17.1959827424        1.4647491095
  C        38.1837173049       17.3024181759        0.7138653050
  C        20.3562246040       17.9913222551        0.7820532362
  C        20.4094722046       18.0596109545        3.5949980854
  C        34.4772563636       17.2420883065       10.1825324014
  C        35.7779737649       17.1681055138       10.9026150231
  C        35.9811849947       16.1941459060       11.8912319762
  C        37.1663482330       16.1743019050       12.6194625189
  C        38.1732981328       17.1278089254       12.3767297150
  C        37.9759546409       18.0763277634       11.3562338907
  C        36.7887113199       18.1017773920       10.6309149265
  C        39.4199738653       17.1460524935       13.1694827578
  C        39.4010285223       17.1665682923       14.5902556842
  C        38.1861487617       17.2881794397       15.3367450999
  C        35.1164086496       26.6482916047       15.3077533034
  C        35.1823135019       26.6639722527       12.4978245644
  C        26.5636979738       17.8245404847       10.3194779728
  C        25.2475360420       17.8705840983       11.0233565963
  C        24.9855519845       18.8721640699       11.9707646488
  C        23.7669442845       18.8987210701       12.6431763318
  C        22.7805757695       17.9221649543       12.3965861353
  C        23.0374258643       16.9452902731       11.4170770985
  C        24.2560247719       16.9178774627       10.7404968980
  C        21.5207435069       17.9042816629       13.1776110681
  C        21.5560788390       17.9129710198       14.5991961874
  C        22.7805902558       17.8008252446       15.3305584824
  C        14.0446135185       17.8245076220       10.2953055633
  C        15.3425858950       17.8730408599       11.0343434648
  C        15.5985182135       18.8787250698       11.9797938262
  C        16.8041828681       18.8985638002       12.6789504217
  C        17.7894244515       17.9152829763       12.4558673180
  C        17.5354773615       16.9293209958       11.4832849873
  C        16.3295070286       16.9053311012       10.7851839013
  C        19.0636941723       17.9079713819       13.2177953419
  C        19.0755966304       17.9280242154       14.6405573482
  C        17.8768924581       17.8412448624       15.4161381233
  C        46.8061680142       17.2161591068       10.1545736109
  C        45.5140478636       17.1503470792       10.8926956955
  C        45.3058726298       16.1698942666       11.8745822731
  C        44.1230941063       16.1527453003       12.6079744736
  C        43.1217412366       17.1162073680       12.3799201622
  C        43.3253278841       18.0735780845       11.3683900385
  C        44.5087539767       18.0947664807       10.6361286100
  C        41.8727622301       17.1352205130       13.1717935914
  C        41.8853141067       17.1472190254       14.5926171286
  C        43.0990817063       17.2440922867       15.3429103507
  C        20.3289151126       17.9526720378       15.3366953041
  C        20.2818172459       17.8818717855       12.5237873258
  C        46.7933368614       17.2348849178        5.8868834434
  C        45.4971450277       17.1451309024        5.1625509090
  C        45.2763828221       16.1532533005        4.1956373764
  C        44.0936371615       16.1437676626        3.4618095277
  C        43.1064623679       17.1238458747        3.6797457922
  C        43.3186028723       18.0871156352        4.6830409997
  C        44.5017644096       18.1026023953        5.4122663411
  C        41.8617850693       17.1578299394        2.8861364262
  C        41.8799321173       17.1574633565        1.4662292940
  C        43.0967069584       17.2458357154        0.7194809639
  C        46.1536649704       26.6373580304        0.7264178077
  C        46.1629805858       26.6561316688        3.5360765909
  C        14.0563263320       17.8413175730        5.7127344932
  C        15.3897641093       17.9396376228        5.0378939126
  C        15.6640206914       18.9673868578        4.1217500436
  C        16.8999337899       19.0274941519        3.4783499418
  C        17.8969382883       18.0597956224        3.7206649185
  C        17.6301111830       17.0625295877        4.6774559998
  C        16.3960989239       17.0023245393        5.3256195795
  C        19.1662136573       18.0482290604        2.9436314325
  C        19.1284905801       17.9993392120        1.5209989958
  C        17.9024602501       17.8731113773        0.7923941591
  C        28.8058825123       14.0918633269       10.3899695810
  C        28.1840559144       12.9238402417       11.0813623862
  C        28.8996343254       12.1856898234       12.0359912225
  C        28.2937320540       11.1159460062       12.6903188340
  C        26.9584178893       10.7588218382       12.4128922214
  C        26.2648302388       11.4772652216       11.4226564289
  C        26.8680095227       12.5483503958       10.7678896015
  C        26.2863107947        9.6808317997       13.1741993585
  C        26.2710471614        9.7112438247       14.5951843502
  C        26.7651335127       10.8297739981       15.3388368932
  C        32.1788938631       21.2450999007       10.1462542082
  C        32.7749682748       22.4127872105       10.8623947425
  C        32.0250290694       23.0934566944       11.8343666310
  C        32.5952694862       24.1325625609       12.5637253002
  C        33.9314126095       24.5204264812       12.3430265257
  C        34.6636061950       23.8587069129       11.3390959236
  C        34.0959491364       22.8136649577       10.6117332295
  C        34.5582035043       25.5941042377       13.1489326635
  C        34.5356977130       25.5644479794       14.5707373227
  C        34.0251057544       24.4458184039       15.3014172621
  C        25.6680296566        8.6312122595       15.3160086447
  C        25.6544113845        8.6262000342       12.5022653065
  C        32.0198961018       21.1643410424        5.7984592742
  C        32.5888009475       22.3359844960        5.0736056789
  C        31.8812651564       22.9712152100        4.0405161696
  C        32.4613824475       24.0257387532        3.3373033990
  C        33.7647932039       24.4712947248        3.6393423724
  C        34.4497971506       23.8495762095        4.7019913631
  C        33.8743005147       22.7961833335        5.4059677384
  C        34.4195944455       25.5569157021        2.8710370943
  C        34.4646388847       25.5451917046        1.4484532508
  C        33.9908636105       24.4368893631        0.6776500055
  C        40.6388342694       17.1568249723        0.7501934525
  C        40.6366162604       17.2063002098        3.5584346973
  C        28.7199529095       14.1028456714        5.8176399442
  C        28.1014048204       12.9573232515        5.0850598512
  C        28.8290284367       12.2795236855        4.0946130726
  C        28.2508431642       11.2205782633        3.3992902835
  C        26.9277140658       10.8132429771        3.6657939975
  C        26.2172461374       11.4807120236        4.6815285958
  C        26.7944562790       12.5398229265        5.3806760890
  C        26.2893913381        9.7185206680        2.8948850450
  C        26.2737102268        9.7308097674        1.4724898224
  C        26.7631178882       10.8412306678        0.7149631029
  C        18.1354789005        3.1809941817       10.3172083439
  C        17.4063894076        4.2783042964       11.0158889571
  C        16.3905692668        4.0001385318       11.9433582034
  C        15.7429754148        5.0402469667       12.6067826360
  C        16.0951979128        6.3839043620       12.3671510408
  C        17.0846638000        6.6532530042       11.4034242426
  C        17.7336145936        5.6157756722       10.7384483190
  C        15.4709848607        7.4916832274       13.1301801937
  C        15.4861574560        7.4909192733       14.5518939298
  C        16.1876402083        6.4972418070       15.3050496650
  C        42.9457585417       31.8595301271       10.0728620085
  C        43.6460854428       30.7718868062       10.8168838098
  C        44.5913956734       31.0932867323       11.8031517774
  C        45.1971202536       30.0877932884       12.5508757491
  C        44.8710031861       28.7346645515       12.3358785620
  C        43.9454223400       28.4202568711       11.3224422894
  C        43.3366020808       29.4253483016       10.5743304830
  C        45.4887141805       27.6554158010       13.1390684998
  C        45.4929710128       27.6810505712       14.5607766584
  C        44.8058407311       28.6890078501       15.3074881126
  C        14.8572402466        8.5634291867       15.2642746402
  C        14.8758841915        8.5635746246       12.4516127972
  C        42.9464813521       31.9615758175        5.8090079043
  C        43.6918365481       30.8854495874        5.0956837016
  C        44.6563939973       31.1913946099        4.1233418546
  C        45.2780275585       30.1718290498        3.4056818364
  C        44.9544448771       28.8214655737        3.6433881712
  C        44.0210714827       28.5237849977        4.6542730940
  C        43.3926775499       29.5405188525        5.3663957853
  C        45.5635416943       27.7241080244        2.8581020379
  C        45.5336617139       27.7174416248        1.4367954528
  C        44.8272254996       28.7076300763        0.6838872146
  C        35.0832130972       26.6373261524        0.7533725499
  C        35.0258700444       26.6143139525        3.5638313080
  C        18.1485665767        3.2468409515        5.7065996032
  C        17.4300436257        4.3436594970        4.9972656671
  C        16.4148512705        4.0524670270        4.0736483711
  C        15.7665697950        5.0831574755        3.3983216177
  C        16.1212913097        6.4283695906        3.6211161008
  C        17.1126880731        6.7116790267        4.5783745002
  C        17.7603270434        5.6827069880        5.2580714663
  C        15.4909180293        7.5241445134        2.8486859165
  C        15.4969082627        7.5076135202        1.4275578311
  C        16.1937398125        6.5059581419        0.6808621956
  H        10.6727592255       12.4658168213        3.9047292795
  H        11.6949960227       10.5510293755        2.6628271148
  H        15.3920561337       11.1687101798        4.7723327160
  H        14.3516607053       13.0715949058        6.0174494814
  H        13.3767406560       11.6314155978        1.2014811777
  H        50.3232547110       22.7480375360        3.9864211344
  H        49.3201591528       24.6226591905        2.6805894091
  H        45.6429634290       24.1614027653        4.8640210145
  H        46.6639303921       22.2904760442        6.1722104256
  H        47.6301760487       23.5759803837        1.2461794607
  H        14.8723019820        8.5882015559        4.6086345962
  H        50.2875266788       22.7031082718       12.0603308223
  H        49.2694915736       24.5760114877       13.3603220281
  H        45.6106700982       24.1090822963       11.1464346881
  H        46.6528551126       22.2537500823        9.8322624983
  H        47.6080233300       23.5520211570       14.7968446729
  H        40.6473937588       17.1094095060       11.4108874923
  H        48.6873673348       14.0947138038        7.8002936451
  H        10.6820491287       12.4669726686       12.0934752260
  H        11.6905711752       10.5252080923       13.2972732786
  H        15.3942685514       11.1594893007       11.2054631092
  H        14.3654339157       13.0876718565        9.9899874363
  H        13.3767209246       11.6226033877       14.7532810712
  H        47.9303162620       14.2191200435        9.7106108202
  H        47.7801507776       14.3733257731        6.4955661454
  H        49.0842271238       18.5520472762       10.8674912925
  H        10.4168676962       14.1342393929        7.9987331345
  H        24.4935200297        3.0409579416        3.9223107711
  H        25.6294015177        4.9072801221        2.7033266433
  H        23.2376499520        7.7598935876        4.8574161579
  H        22.1202016542        5.8841897095        6.0781624309
  H        23.8080480506        5.8014440214        1.2810794591
  H        36.3479389976       32.1878455221        3.9905544079
  H        35.1938028856       30.3712938891        2.7311280493
  H        37.4529110035       27.4339718661        4.9149021620
  H        38.5872957107       29.2637925165        6.1844259465
  H        36.9699289082       29.4551202085        1.3150532275
  H        25.7268581853        8.6322311556        4.6609478097
  H        36.4557273798       32.2457485334       12.1139799541
  H        35.3441867795       30.4344910341       13.4170462004
  H        37.5514667366       27.4896384251       11.1887891421
  H        38.6366283488       29.3126109819        9.8719075949
  H        37.0177779016       29.4779342557       14.8684692644
  H        46.1093914396       26.5877516556       11.3857147242
  H        44.6682801508       35.1162113637        7.8138926598
  H        24.4263283345        3.0465531929       12.1015760386
  H        25.5482700583        4.8883999334       13.3558322581
  H        23.1538774196        7.7713232205       11.2456921428
  H        22.0435118797        5.9174797098        9.9915145004
  H        23.7809426938        5.7998634566       14.8330049720
  H        44.9539119730       34.3906063872        9.6953710857
  H        44.9016282729       34.2067837423        6.4905849894
  H        40.6667310747       33.2093614355       10.8532247194
  H        23.1503229752        1.9581521161        8.0059322994
  H        25.9623326081       19.6666206761        3.7234878972
  H        23.7486186946       19.7659411449        2.5852624151
  H        22.4158018053       16.3794797936        4.8785174336
  H        24.6264820728       16.3034147815        6.0252883713
  H        23.7523923041       17.7208280069        1.2260416720
  H        35.2606273450       15.4773268180        4.1525517423
  H        37.3389285486       15.4491028238        2.7705149738
  H        38.7271648068       18.9724649623        4.8089474214
  H        36.6286471126       19.0023826830        6.1740607474
  H        37.2462627267       17.4270062028        1.2489109522
  H        20.4283759240       18.1200298655        4.6819738885
  H        35.1900751800       15.4739499659       12.0857957613
  H        37.3258236255       15.4175241739       13.3842950939
  H        38.7495971675       18.8175225972       11.1670187718
  H        36.6119584397       18.8511653624        9.8630901566
  H        37.2501757921       17.4030725811       14.7974332436
  H        35.1673374953       26.6916137973       11.4099199836
  H        28.5166494249       21.0987334805        8.0033295506
  H        25.7502675155       19.6204856513       12.1659199186
  H        23.5655005198       19.6803386777       13.3724654997
  H        22.2861907989       16.1833216927       11.2193736060
  H        24.4687498391       16.1508349586        9.9995773056
  H        23.7054539134       17.6552179132       14.7805446687
  H        28.9941475195       21.7188790262        9.7768761122
  H        29.0590501201       21.7903571736        6.5832801986
  H        32.0977268727       18.5363905866       10.9992139491
  H        27.3987760519       19.0802575952        8.0738970973
  H        14.8432241259       19.6428722823       12.1494102362
  H        16.9991564830       19.6876741248       13.4020386144
  H        18.2839917610       16.1604804856       11.3027382109
  H        16.1245879146       16.1325826307       10.0479788542
  H        16.9289775355       17.7163831863       14.9005659204
  H        46.0883753960       15.4371455814       12.0569316836
  H        43.9603923826       15.3873901944       13.3636320957
  H        42.5578116473       18.8236195986       11.1892498563
  H        44.6859463732       18.8485647789        9.8726893038
  H        44.0381238223       17.3488917559       14.8071417596
  H        20.2642135990       17.8987311580       11.4354834639
  H        46.0464215279       15.4049618307        4.0226518785
  H        43.9202614643       15.3740078046        2.7130425580
  H        42.5594234986       18.8473288042        4.8542851953
  H        44.6905360885       18.8632957029        6.1655629732
  H        44.0340774056       17.3510406478        1.2579627451
  H        46.1999363595       26.6826645779        4.6235169043
  H        52.7411303206       21.0626116478        8.1947227021
  H        14.8971300273       19.7140244746        3.9269404011
  H        17.1029183172       19.8275511303        2.7694586935
  H        18.3863313673       16.3061950865        4.8780024192
  H        16.1822838001       16.2165210681        6.0463621749
  H        16.9739639393       17.7726593031        1.3463069081
  H        52.3219065640       21.6728648444        6.2942694890
  H        52.0128093775       21.7014676054        9.4957950125
  H        49.0698921349       18.6087529195        5.2040159806
  H        13.2483978529       19.0163778833        7.9794068464
  H        29.9303411195       12.4625179070       12.2472610164
  H        28.8502108827       10.5421145968       13.4282423207
  H        25.2332330057       11.2115734852       11.2008367409
  H        26.3301200663       13.1242549883       10.0187880165
  H        27.1195003985       11.7008784806       14.7961122781
  H        30.9988148172       22.7815335283       12.0140049428
  H        32.0081552577       24.6578093039       13.3139222259
  H        35.6979380215       24.1469463028       11.1627721009
  H        34.6691329572       22.2769139824        9.8592526832
  H        33.6852673645       23.5733570734       14.7507180968
  H        25.6860525952        8.6045373114       11.4143370573
  H        30.8831783077       22.6186568952        3.7895064532
  H        31.9030503216       24.5183665011        2.5443594339
  H        35.4579959321       24.1786917300        4.9449419803
  H        34.4126150657       22.2972393386        6.2082585843
  H        33.6258603404       23.5557222241        1.1970766053
  H        40.6350792176       17.1845005356        4.6464394414
  H        32.5204496706       14.1512865056        8.2491365126
  H        29.8472786657       12.6020175393        3.8887943331
  H        28.8241254302       10.6901300494        2.6420986607
  H        25.1934826183       11.1803510559        4.8952307961
  H        26.2412126339       13.0686181885        6.1532899356
  H        27.1144464330       11.7215372415        1.2454813257
  H        33.2935735671       14.1668699898        6.4321599321
  H        33.4080683577       14.3966157716        9.6119216069
  H        32.1288019462       18.5899743066        5.1015533177
  H        30.2216744001       14.1910144803        8.0875691097
  H        16.1182864870        2.9636863027       12.1297345942
  H        14.9534424365        4.8210214605       13.3223945029
  H        17.3673343248        7.6860705583       11.2103669038
  H        18.5157530683        5.8183065243       10.0106754405
  H        16.7542367791        5.7399293976       14.7715521945
  H        44.8274965145       32.1403884226       11.9774667827
  H        45.9368432689       30.3416363836       13.3069329699
  H        43.6829988802       27.3781498276       11.1521383224
  H        42.6002787753       29.1899022265        9.8094186031
  H        44.2303797873       29.4367465067       14.7692562122
  H        14.8521675740        8.5468619508       11.3633847931
  H        44.8998057928       32.2340847648        3.9317781436
  H        46.0248718574       30.4131032645        2.6523950573
  H        43.7642687480       27.4840395757        4.8459662701
  H        42.6462421968       29.3176611765        6.1248840778
  H        44.2686879163       29.4704721537        1.2185047182
  H        34.9674108555       26.6279374109        4.6506599341
  H        36.6052643216       35.1339837965        8.1806658842
  H        16.1437007271        3.0129132268        3.9039100273
  H        14.9742543835        4.8563913627        2.6881981122
  H        17.3962896003        7.7471248889        4.7552569026
  H        18.5432174286        5.8931166537        5.9828243051
  H        16.7651163829        5.7556822111        1.2193102833
  H        36.2788957031       34.4822040074        6.2729770081
  H        36.3810038513       34.2090055685        9.4994767885
  H        40.5788891903       33.2017583016        5.1542951004
  H        17.4711328429        1.9470549187        7.9740034910
  H        28.8926920741       19.1646739714       12.4556666117
  H        32.6366799479       16.3053351722        4.0830102855
  H        31.3047213104       15.5215662462       12.4972906611
  H        27.8968478602       17.5635996143       14.5540046286
  H        29.4727574366       15.0390306417       14.1592983381
  H        31.4358192117       19.4848359664        1.3189803973
  H        32.2889048734       14.7090496630        1.4658508520
  H        28.3875100633       16.3287872371        1.4436135711
  H        31.4395851072       19.3665205443       14.0597099320
  H        18.8535279029        0.8690236290       12.3352738593
  H        40.5280868940       35.2289677860        3.9520611303
  H        42.3241812936       34.4189693205        3.5906383132
  H        22.0878459520        0.6922880868       12.3513061075
  H        11.5967803551       18.7135275706       12.3826457526
  H        52.2649428100       18.4311072339        3.6762100399
  H        49.2553992749       16.4771204664        3.5848378441
  H        10.1501143407       15.7983061793       12.2934051811
  H        50.8502635184       17.6919743285        3.9544773287
  H        10.0462110731       17.3945257845       12.0521051552
  H        20.2149029518        0.0023621234       12.0419752556
  H        39.1837012152       36.1244233641        3.6865217887
 Ni        29.9677870948       17.8803900009        2.2438668317
 Ni        30.5178185463       16.1116666583        0.0923886824
 Ni        29.7635048216       18.6444991522       -0.2455793312
 Ni        30.1867502500       17.4237717293       13.3189590237
  O        10.6502165039       14.3649898093        5.4858752737
  O        12.6134378631       14.6577376200        6.5839025820
  O        49.1486654263       16.8457257756        7.9899569446
  O        50.3505767877       20.9351589540        5.6478323492
  O        48.3487471383       20.5934130749        6.6658909229
  O        11.0523226592       17.0535733409        6.5008482478
  O        50.3213123066       20.8817434170       10.4068145039
  O        48.3468907440       20.5869674151        9.3273425220
  O        49.5442653216       18.2484227843       10.0682668273
  O        12.3599326494       18.6244316994        7.9993641701
  O        48.6933929909       14.1483624002        6.7514550905
  O         8.2100703613       14.2102047945        9.3224362440
  O        10.7355953911       14.5066841875       10.6642739767
  O        12.5719898410       14.5830247004        9.3283059931
  O        22.8448731925        2.0443536917        5.4870293970
  O        21.6053318340        3.5923260375        6.5902090961
  O        42.0580193607       34.1372906601        7.9789000704
  O        37.9810978113       33.1355368500        5.5718583921
  O        39.2167826195       31.5746509698        6.6650724803
  O        20.3084394066        1.0395973538        6.5021230510
  O        38.0246504740       33.1854809137       10.4155813922
  O        39.2184046178       31.5830466100        9.3274497763
  O        40.6522356019       33.7692875328       10.0600835965
  O        18.2557798640        1.3758247336        7.9967651997
  O        44.6221953804       35.1005673891        6.7587193400
  O        24.2053586884        0.0000602686        9.3207724707
  O        22.7531105544        2.0586445688       10.5844193475
  O        21.6245836338        3.5963744144        9.3431459635
  O        27.7087334634       18.6869875949        5.3315166806
  O        26.8170180864       17.0054453365        6.5820772502
  O        30.6675209367       19.4118494497        8.0754091989
  O        33.7129870556       16.3417633081        5.8267655673
  O        34.3397026500       18.3230486830        6.7448747636
  O        29.5900490437       17.0620174988        6.5774290382
  O        33.6190141630       16.3283426086       10.4067604315
  O        34.3064538461       18.2476734324        9.4075035146
  O        31.6531585831       18.3159462099       10.1632416197
  O        30.3235816941       15.1568646212        8.0849775028
  O        28.5509591889       21.0302361063        6.9137276744
  O        28.5140192898       20.9578479855        9.4080568135
  O        27.4508839174       18.6759935747       10.6581525975
  O        26.6930677853       16.9286340218        9.4070948048
  O        13.1486870733       18.6927169820       10.5880728395
  O        13.9203566021       16.9164546092        9.4062114543
  O        50.5973182097       19.3504000602        8.0201974285
  O        47.6850390931       16.3261627941       10.4165623906
  O        46.9530804071       18.1758966004        9.3238730188
  O        11.0709674962       17.0149668870        9.4894275315
  O        47.6782928885       16.3341100069        5.6530250728
  O        46.9356697696       18.2346914696        6.6674614342
  O        49.5700217770       18.3176330440        5.9824608147
  O        10.3190121727       15.1000364798        7.9970003488
  O        52.6708245907       21.0277897847        9.2418335593
  O        12.1469450749       20.8911081667        6.6731802676
  O        13.1121192465       18.6136032413        5.3246845188
  O        13.9615832885       16.9887862344        6.6623832970
  O        29.9893908571       14.4375804969       10.7297363425
  O        28.0880523744       14.6549741659        9.4917344383
  O        32.1080709591       16.9149729466        8.0664797638
  O        30.9673691160       20.9542931054       10.4095700055
  O        32.9472665375       20.6040044137        9.3394879588
  O        29.5663591291       17.0780470400        9.5752798806
  O        30.8098007827       20.8010042646        5.4993035265
  O        32.7746309455       20.5931021961        6.6498460329
  O        31.6015357748       18.2453921870        5.8388352926
  O        28.2841695840       18.6802742333        8.0783024754
  O        32.4927567070       14.2152435473        9.3290798380
  O        32.4091014219       14.2130930760        6.8315079927
  O        29.9025185624       14.4439400846        5.4939644118
  O        28.0075493633       14.6479371088        6.7410896052
  O        17.8892251826        1.9666000055       10.6627910899
  O        18.9562320752        3.5270978652        9.4079489522
  O        39.1685904161       34.1386027683        7.9970340403
  O        43.2801826597       33.0589539724       10.3316632522
  O        42.0343418260       31.5065075743        9.2415752632
  O        20.3177144514        1.0367631806        9.4802366865
  O        43.2760262662       33.1825493626        5.5749132143
  O        42.0051867839       31.5841146673        6.5829840545
  O        40.5790861568       33.7751313553        5.9359247700
  O        22.3673743638        1.3846845914        7.9979398289
  O        36.6727829515       35.0997150885        9.2333001014
  O        16.4457256302        0.0640572066        6.6682161025
  O        17.9363758559        2.0431613571        5.3264568505
  O        18.9190132720        3.5930429352        6.6659335373
  O        29.7412178408       18.9795059940       12.0036419653
  O        31.7238659663       15.9718881543        4.1555604708
  O        31.3462753075       16.3547872962       11.9907563690
  O        31.9416986064       15.6085764348        1.5755764072
  O        29.3230999086       16.2065093027        1.6823472141
  O        30.2408525730       15.6120343418       14.3140942681
  O        31.3402225186       18.5377435146       14.5648494920
  O        30.4650592683       19.4786975672        1.4203953261
  O        28.5547404065       18.2395814789       14.3244719904
  O        39.4568301838       35.2437562648        4.0019998716
  O        19.1415225030        0.0045933502       11.9905110405
  O        41.9695710530       35.1727711410        4.0872151478
  O        21.6913645010       -0.0692140522       11.8958347760
  O        51.3655073568       18.6141207042        4.0054928698
  O        10.7510648211       18.7472007860       11.9049062003
  O        50.0800112109       16.4129059998        4.0917909998
  O         9.5245479427       16.4831077610       11.9912014110
 Zr         9.2973580588       16.0522246835        6.1828730184
 Zr        49.8372483626       16.0063565696        9.7462571058
 Zr        22.0733985048        0.0302444310        6.1888615641
 Zr        42.4610397322       35.1537026059        9.8008924003
 Zr        29.6348005754       19.1041509114        6.3894020675
 Zr        29.5676675977       19.1654405823        9.9181147701
 Zr        11.0385405728       19.0515012891        9.8276428331
 Zr        11.0452423951       19.1541663304        6.2505117434
 Zr        31.3524583815       16.1004471315        9.8823475799
 Zr        31.4041988636       15.9844677248        6.2431192610
 Zr        18.6012418415       -0.0013361701        9.7633720608
 Zr        18.5067562113       -0.0078076885        6.2135070126
 Zr        12.3037923360       16.3240679386        7.9891621964
 Zr        48.6183890803       18.8334268566        8.0111404083
 Zr        20.3154734291        2.4738290448        7.9906706205
 Zr        40.6432645191       32.6869518795        7.9777888956
 Zr        28.3539960262       16.3428867129        8.0791207883
 Zr        32.6553732276       18.8381140028        8.0782331745
  H        31.6719908134       15.6805914883        2.5672540674
