     571
 i =      101, E =     -4761.5944144450
  C        11.8587636010       14.0536445974        5.7415586886
  C        12.4563108987       12.8907152238        5.0231807279
  C        11.7045090950       12.1715828679        4.0817756755
  C        12.2808740725       11.1093615249        3.3894310649
  C        13.6215400829       10.7397926090        3.6169539491
  C        14.3548692560       11.4436367062        4.5900866420
  C        13.7819856631       12.5086401389        5.2815712284
  C        14.2610289214        9.6490622957        2.8435971526
  C        14.2563171709        9.6569148897        1.4218953847
  C        13.7431452723       10.7590412818        0.6679973831
  C        49.1268242078       21.2331622732        5.8797714279
  C        48.5500347987       22.4011450335        5.1526575329
  C        49.3000955998       23.0684808844        4.1717097225
  C        48.7331793713       24.1076277658        3.4384950953
  C        47.4026444843       24.5092605833        3.6671152185
  C        46.6716507557       23.8603673105        4.6805784157
  C        47.2340971698       22.8154577054        5.4099388957
  C        46.7724003645       25.5869623460        2.8698374233
  C        46.7613370849       25.5573564211        1.4480713644
  C        47.2612625340       24.4422534298        0.7045843168
  C        14.8602282516        8.5705473615        0.7086501596
  C        14.8917868333        8.5971211762        3.5202617368
  C        49.1131855436       21.2033618716       10.1453765362
  C        48.5277436546       22.3647318336       10.8725969303
  C        49.2670439850       23.0255714622       11.8653622845
  C        48.6907162510       24.0601281133       12.5968379089
  C        47.3602418962       24.4567485373       12.3587316046
  C        46.6397179941       23.8116808574       11.3353983026
  C        47.2132791492       22.7757639506       10.6036180513
  C        46.7218096468       25.5317576898       13.1497375686
  C        46.7335205548       25.5281511348       14.5714429599
  C        47.2489725925       24.4289436081       15.3278223740
  C        40.6207808776       17.1010446273       15.3076716997
  C        40.6285122852       17.1083399732       12.4981327908
  C        11.8830062027       14.0866136802       10.2854875627
  C        12.4723762373       12.9108306751       10.9898098887
  C        11.7147275951       12.1774034230       11.9156203111
  C        12.2813018450       11.0949264833       12.5840260515
  C        13.6202325196       10.7214572514       12.3524724216
  C        14.3583892681       11.4373088732       11.3920374060
  C        13.7929723240       12.5185074560       10.7193634301
  C        14.2537677771        9.6246201427       13.1228443663
  C        14.2524875934        9.6445540148       14.5446850299
  C        13.7425981660       10.7535043359       15.2917425010
  C        22.5117770283        3.2450948334        5.7518331181
  C        23.2258032525        4.3498658695        5.0495961255
  C        24.2236974991        4.0680388614        4.1047721507
  C        24.8517113523        5.1059264111        3.4209240047
  C        24.4978898904        6.4486136982        3.6610986390
  C        23.5273435421        6.7220433449        4.6423171879
  C        22.8948624053        5.6858577601        5.3248497425
  C        25.1076018804        7.5531065435        2.8847722689
  C        25.0874546932        7.5429319774        1.4628883347
  C        24.3856504626        6.5440879878        0.7157741206
  C        38.3035072201       31.9306371882        5.8488313360
  C        37.5757009377       30.8414333495        5.1379456019
  C        36.6168945861       31.1453645705        4.1596182531
  C        36.0015994723       30.1249584233        3.4401131610
  C        36.3307837962       28.7762784397        3.6780685227
  C        37.2602186388       28.4797553334        4.6925730713
  C        37.8796140869       29.4988412670        5.4108280585
  C        35.7292638268       27.6845368446        2.8811557691
  C        35.7586856982       27.6999559016        1.4600153692
  C        36.4639813099       28.7023314013        0.7221814834
  C        25.7161925193        8.6098822214        0.7430169296
  C        25.7015386335        8.6301151656        3.5553804998
  C        38.3287737063       31.9626340190       10.1553791451
  C        37.6069602993       30.8892210403       10.8960252268
  C        36.6772093701       31.1973971226       11.9007527003
  C        36.0677730636       30.1782753248       12.6297363675
  C        36.3743022080       28.8262165240       12.3772022057
  C        37.2811786253       28.5279159256       11.3419696070
  C        37.8926757402       29.5435213935       10.6142384284
  C        35.7678761264       27.7270353681       13.1617218518
  C        35.7785274996       27.7216848461       14.5834997987
  C        36.4730165038       28.7130209440       15.3455014329
  C        46.1355258093       26.6207994149       15.2815749608
  C        46.0878562675       26.5801092812       12.4736790535
  C        22.4624505473        3.2556179082       10.2565143889
  C        23.1609658335        4.3633130319       10.9766806029
  C        24.1675555027        4.0749546753       11.9119864883
  C        24.8003827911        5.1035689871       12.6056874381
  C        24.4465718991        6.4499760536       12.3868437978
  C        23.4630898271        6.7317140371       11.4198443228
  C        22.8258097313        5.7032966705       10.7263481064
  C        25.0810904669        7.5460063052       13.1608761923
  C        25.0744061558        7.5386331413       14.5834773776
  C        24.3775205538        6.5432998158       15.3389526723
  C        26.6179246614       17.8647946985        5.7830709999
  C        25.3084287760       17.9134704979        5.0626887400
  C        25.0554395858       18.9045045145        4.1011705832
  C        23.8429608659       18.9273804986        3.4146021276
  C        22.8470149543       17.9615585138        3.6659152616
  C        23.0960662473       16.9941590552        4.6579601545
  C        24.3101374472       16.9665796735        5.3430657611
  C        21.5751543204       17.9476769097        2.8993757321
  C        21.5760251683       17.9261698976        1.4765708206
  C        22.7818384833       17.8013690692        0.7166398703
  C        34.4404202909       17.1954844054        5.9155060126
  C        35.7339582758       17.1414776080        5.1727595985
  C        35.9369104016       16.1736226298        4.1766308367
  C        37.1172347808       16.1600389866        3.4386583168
  C        38.1272292978       17.1126433790        3.6768114208
  C        37.9272675101       18.0601115569        4.6989652767
  C        36.7441760731       18.0793883943        5.4341178333
  C        39.3798024805       17.1214417003        2.8872120906
  C        39.3710934202       17.1310612576        1.4653643776
  C        38.1618770967       17.2526630723        0.7108702929
  C        20.3298385759       17.9445522123        0.7669887698
  C        20.3496403503       17.9495402885        3.5804162054
  C        34.4367064780       17.2396289829       10.1878895083
  C        35.7366311098       17.1425078324       10.9147228502
  C        35.9372428809       16.1712091820       11.9064116972
  C        37.1289824778       16.1405881153       12.6269867922
  C        38.1478437599       17.0808107372       12.3766293565
  C        37.9520626167       18.0257343215       11.3520736386
  C        36.7603003087       18.0608236079       10.6344579406
  C        39.3988055228       17.0979418314       13.1670525633
  C        39.3810600608       17.1202437524       14.5883446760
  C        38.1665344334       17.2466851277       15.3341127079
  C        35.1480851055       26.6431864156       15.2882329700
  C        35.1787416619       26.6554918025       12.4792839505
  C        26.5748559251       17.8304196440       10.3257280010
  C        25.2588048069       17.8748806833       11.0322062021
  C        24.9925423515       18.8847345428       11.9689796567
  C        23.7748673833       18.9118980490       12.6433112716
  C        22.7934606305       17.9294516957       12.4033193238
  C        23.0537562788       16.9444151487       11.4336101892
  C        24.2726239772       16.9150293417       10.7582343495
  C        21.5292741665       17.9135315199       13.1758296552
  C        21.5522035467       17.9076536941       14.5974089459
  C        22.7702336849       17.7927713005       15.3401188440
  C        14.0470809580       17.8295781082       10.2884160667
  C        15.3517511892       17.8886407290       11.0127252591
  C        15.6076796077       18.8933641437       11.9590160052
  C        16.8166813747       18.9162460826       12.6517113976
  C        17.8042835260       17.9372982544       12.4205360389
  C        17.5532503466       16.9571121498       11.4416966013
  C        16.3437063590       16.9296431201       10.7504429693
  C        19.0729886642       17.9219647712       13.1901913200
  C        19.0708131851       17.9221044184       14.6127423174
  C        17.8634019748       17.8248183707       15.3735627218
  C        46.8022799687       17.2162715854       10.1565142181
  C        45.5081222351       17.1469493737       10.8958828654
  C        45.3022692906       16.1656552009       11.8781053549
  C        44.1177851456       16.1401370979       12.6097831250
  C        43.1080386803       17.0955536001       12.3818576216
  C        43.3101452067       18.0549481671       11.3711504695
  C        44.4956887599       18.0846053089       10.6405003525
  C        41.8551511842       17.1029968630       13.1725180045
  C        41.8652917641       17.1111488798       14.5947147512
  C        43.0762507444       17.2119001681       15.3494970569
  C        20.3172359166       17.9342499078       15.3217865662
  C        20.2976014745       17.9007887799       12.5086683916
  C        46.7858447320       17.2328798964        5.8859855904
  C        45.4853089626       17.1302172713        5.1644044070
  C        45.2695385634       16.1342561666        4.1997292094
  C        44.0830641922       16.1080773250        3.4706933809
  C        43.0823016529       17.0749560233        3.6887321468
  C        43.2895051307       18.0420887775        4.6901584102
  C        44.4769564329       18.0745318253        5.4145029842
  C        41.8344445613       17.0947319486        2.8937426452
  C        41.8549284783       17.1054802422        1.4724235758
  C        43.0714962729       17.2063430133        0.7265576981
  C        46.1533185539       26.6372458475        0.7263340003
  C        46.1625101448       26.6561077785        3.5359701192
  C        14.0455020272       17.8324219534        5.7089357210
  C        15.3660720596       17.9090202877        5.0185356629
  C        15.6373650284       18.9261010134        4.0910756687
  C        16.8658149151       18.9661278809        3.4355477263
  C        17.8506330872       17.9883192802        3.6816872320
  C        17.5861951865       17.0002959068        4.6476086536
  C        16.3597472440       16.9596920353        5.3067024392
  C        19.1177832453       17.9663691959        2.9126582965
  C        19.0942482691       17.9437456872        1.4911356970
  C        17.8748470964       17.8344607610        0.7498053172
  C        28.8083913692       14.0839542195       10.3583302557
  C        28.2011751411       12.9132171213       11.0566522161
  C        28.9343387181       12.1679808890       11.9916612285
  C        28.3400550416       11.0938560049       12.6500596179
  C        26.9995964571       10.7400730597       12.3956594562
  C        26.2871266293       11.4670483749       11.4251560316
  C        26.8785069172       12.5423084821       10.7667901317
  C        26.3360191195        9.6573098465       13.1586283497
  C        26.3273118573        9.6805888214       14.5796052096
  C        26.8370533532       10.7906044170       15.3252392859
  C        32.1810718477       21.2414237824       10.1433410551
  C        32.7791440976       22.4028486827       10.8665393892
  C        32.0273511596       23.0897546170       11.8318958292
  C        32.5981870801       24.1293593511       12.5595239656
  C        33.9362281149       24.5097821165       12.3412743559
  C        34.6714211667       23.8411549577       11.3447742004
  C        34.1027242858       22.7957482850       10.6196372661
  C        34.5642087335       25.5865990616       13.1399558765
  C        34.5550746639       25.5597204777       14.5612855920
  C        34.0425410434       24.4465098643       15.2996671545
  C        25.7141838575        8.6042301251       15.2981755286
  C        25.6966847301        8.6082691625       12.4851580474
  C        32.1059422636       21.2323149048        5.8818194593
  C        32.6999286329       22.3827712898        5.1380230166
  C        31.9627483770       23.0506557216        4.1479547713
  C        32.5441151968       24.0783643989        3.4091991075
  C        33.8767669792       24.4695033021        3.6440889288
  C        34.5972229924       23.8158903383        4.6619851136
  C        34.0205029527       22.7817200328        5.3949774306
  C        34.5161974469       25.5504832362        2.8593663729
  C        34.5289825716       25.5418177719        1.4377173587
  C        34.0287966239       24.4389512243        0.6764043240
  C        40.6152504563       17.1024804837        0.7526179936
  C        40.6055283056       17.1197240714        3.5627425727
  C        28.7201623746       14.0965424966        5.7836824171
  C        28.1188074238       12.9421495165        5.0525545428
  C        28.8687641060       12.2221348819        4.1096958484
  C        28.2947616188       11.1569590016        3.4197296281
  C        26.9544736693       10.7852269582        3.6478040332
  C        26.2219072965       11.4911136492        4.6202752342
  C        26.7947754483       12.5558310979        5.3131802201
  C        26.3190970517        9.6889789789        2.8774482308
  C        26.3202619941        9.6971686466        1.4557704384
  C        26.8313744846       10.7997415541        0.7011895961
  C        18.1353725837        3.1810679720       10.3171378938
  C        17.4060161421        4.2782575932       11.0156504770
  C        16.3905740841        3.9998463461       11.9434760765
  C        15.7428318772        5.0397987811       12.6069775397
  C        16.0944294637        6.3835738923       12.3670500955
  C        17.0834665399        6.6531317228       11.4029258673
  C        17.7325763453        5.6158212694       10.7378515277
  C        15.4701293861        7.4912425622       13.1301294178
  C        15.4854008733        7.4905120874       14.5518444328
  C        16.1869851668        6.4969292970       15.3050326138
  C        42.9459495749       31.8594902334       10.0729190359
  C        43.6463039816       30.7718626205       10.8168606871
  C        44.5917151887       31.0931807733       11.8030571903
  C        45.1973958263       30.0876190569       12.5507101303
  C        44.8710853438       28.7345335113       12.3357529027
  C        43.9453998839       28.4202155856       11.3223983855
  C        43.3366004441       29.4253608203       10.5743574871
  C        45.4886407152       27.6552351373       13.1389523036
  C        45.4928125153       27.6809099309       14.5606417162
  C        44.8056865289       28.6889259877       15.3072706794
  C        14.8564507910        8.5630081659       15.2642174812
  C        14.8749315226        8.5630764080       12.4515481491
  C        42.9465535588       31.9616135536        5.8090131242
  C        43.6918324415       30.8855400539        5.0955918248
  C        44.6561610089       31.1914529964        4.1230181751
  C        45.2776779145       30.1718591212        3.4053126321
  C        44.9541959882       28.8215037713        3.6432047917
  C        44.0210422768       28.5238540602        4.6543053141
  C        43.3927790796       29.5406165049        5.3664773744
  C        45.5631685492       27.7241000857        2.8579344919
  C        45.5333809508       27.7174155289        1.4366352563
  C        44.8269838754       28.7075825988        0.6836647837
  C        35.1364713089       26.6330822292        0.7329096933
  C        35.1272765175       26.6083472735        3.5425259673
  C        18.1485468803        3.2470627594        5.7066131743
  C        17.4299246354        4.3438679500        4.9974378300
  C        16.4149390833        4.0525746433        4.0736116996
  C        15.7666303275        5.0831942043        3.3982267313
  C        16.1210430035        6.4284721886        3.6211684982
  C        17.1121411907        6.7118659964        4.5787267506
  C        17.7598127570        5.6829683915        5.2585076914
  C        15.4905768966        7.5241469816        2.8486906714
  C        15.4964346790        7.5074492292        1.4275556182
  C        16.1932168973        6.5057676264        0.6808468966
  H        10.6723032027       12.4655723570        3.9049644024
  H        11.6945139698       10.5507068673        2.6630819673
  H        15.3920264303       11.1693265003        4.7715276776
  H        14.3515823070       13.0721602672        6.0166815833
  H        13.3761627516       11.6311694792        1.2013266396
  H        50.3228015587       22.7484145478        3.9869910880
  H        49.3196889765       24.6228908114        2.6809335230
  H        45.6421466510       24.1611185675        4.8637183401
  H        46.6630837255       22.2901715342        6.1720036691
  H        47.6298157370       23.5758882480        1.2462810099
  H        14.8721689330        8.5884647287        4.6085699982
  H        50.2871452288       22.7028095999       12.0601421913
  H        49.2691700000       24.5756830236       13.3602292940
  H        45.6102328443       24.1087505141       11.1464997988
  H        46.6523760491       22.2534157871        9.8322377352
  H        47.6077605451       23.5518329110       14.7969131513
  H        40.6309595011       17.0685159846       11.4105040678
  H        48.6870915523       14.0951069300        7.8000375732
  H        10.6811702010       12.4663185355       12.0927813655
  H        11.6894217194       10.5243314330       13.2964885225
  H        15.3939677348       11.1597414570       11.2064450864
  H        14.3654785335       13.0881956599        9.9912084245
  H        13.3758134648       11.6221204855       14.7530758410
  H        47.9300924113       14.2190262895        9.7107993664
  H        47.7800295170       14.3740197272        6.4953621706
  H        49.0828765679       18.5518430964       10.8671928663
  H        10.4159832764       14.1343713695        7.9988451044
  H        24.4852222032        3.0290731681        3.9167780359
  H        25.6259565320        4.8862521887        2.6889941031
  H        23.2457214430        7.7553106269        4.8344052809
  H        22.1238343836        5.8883700148        6.0642555795
  H        23.8214649552        5.7889770960        1.2553240984
  H        36.3789783270       32.1885381614        3.9654887515
  H        35.2573719778       30.3631729991        2.6833906499
  H        37.5214725882       27.4407650174        4.8824654366
  H        38.6229975573       29.2788238127        6.1733199748
  H        37.0296065308       29.4520495694        1.2677226952
  H        25.7286714662        8.6177703366        4.6435070483
  H        36.4534218651       32.2414490006       12.1078176311
  H        35.3413615958       30.4220092778       13.4018328229
  H        37.5290688774       27.4878634447       11.1405616417
  H        38.6157783406       29.3189554206        9.8339891036
  H        37.0466491084       29.4705627919       14.8192825994
  H        46.1092579424       26.5874520758       11.3856426164
  H        44.6681854934       35.1161438684        7.8139560611
  H        24.4444826886        3.0361448758       12.0768267001
  H        25.5842748807        4.8730829518       13.3240049764
  H        23.1784481069        7.7667794202       11.2420023964
  H        22.0507208427        5.9178877738        9.9942192020
  H        23.8065335194        5.7880030253       14.8067565942
  H        44.9533715506       34.3899043943        9.6948265819
  H        44.9012493344       34.2066287627        6.4906396504
  H        40.6660333980       33.2090863251       10.8530743531
  H        23.1506199420        1.9578638911        8.0046771854
  H        25.8233497423       19.6497874215        3.9068938740
  H        23.6520274628       19.7024708881        2.6754182078
  H        22.3388657656       16.2398764394        4.8622944149
  H        24.5122314273       16.2059807614        6.0936859972
  H        23.7221252075       17.6806194617        1.2466986615
  H        35.1513586200       15.4452035044        3.9898943166
  H        37.2734379204       15.4023518855        2.6738817577
  H        38.6988745932       18.8037064747        4.8876855547
  H        36.5734518394       18.8256566299        6.2066706606
  H        37.2249106441       17.3817235311        1.2449991781
  H        20.3554804462       17.9893622042        4.6682895524
  H        35.1409643216       15.4591533413       12.1109934164
  H        37.2832438855       15.3835847321       13.3927939497
  H        38.7312176316       18.7586568962       11.1531899802
  H        36.5887598228       18.8087825475        9.8642133873
  H        37.2329807721       17.3709827211       14.7928827802
  H        35.1515620881       26.6799241324       11.3915508332
  H        28.4939865927       21.0845318072        7.8862919802
  H        25.7536615561       19.6407637845       12.1485057537
  H        23.5679394033       19.6992353317       13.3649934494
  H        22.3042046519       16.1791502372       11.2424767872
  H        24.4895985393       16.1430128064       10.0238279506
  H        23.7015276237       17.6657170302       14.7962135366
  H        29.0069241329       21.7269120572        9.7360837039
  H        29.2008003775       21.7183151272        6.5756164519
  H        32.0604738987       18.5770157053       10.9251214213
  H        27.3930010002       19.0740280768        8.0780190288
  H        14.8485413681       19.6518850376       12.1364148906
  H        17.0112347537       19.7016239592       13.3789358855
  H        18.3053246948       16.1935328883       11.2538251818
  H        16.1386438268       16.1594804916       10.0106539331
  H        16.9210512573       17.7091175317       14.8460674618
  H        46.0881019968       15.4368675802       12.0623187127
  H        43.9605295451       15.3722138739       13.3640411513
  H        42.5388479241       18.8005675746       11.1894409082
  H        44.6673337316       18.8406342592        9.8778137654
  H        44.0161945004       17.3246729076       14.8168202987
  H        20.2923163641       17.9278904161       11.4204563763
  H        46.0469014930       15.3942240454        4.0236397066
  H        43.9185633760       15.3341544861        2.7241184664
  H        42.5224072886       18.7936106208        4.8649349165
  H        44.6572222091       18.8397800831        6.1654964699
  H        44.0078589802       17.3138854455        1.2664237159
  H        46.1994294541       26.6826490389        4.6234135893
  H        52.7412196498       21.0626294972        8.1946659505
  H        14.8755766998       19.6788907210        3.9007417552
  H        17.0754536447       19.7577939568        2.7194335101
  H        18.3382076053       16.2392029259        4.8453757292
  H        16.1402769776       16.1840276677        6.0363472504
  H        16.9410771492       17.7262030007        1.2933226772
  H        52.3224368041       21.6733076499        6.2943342898
  H        52.0132438652       21.7021117269        9.4955806574
  H        49.0678094189       18.6078344335        5.2039738442
  H        13.2476258568       19.0162297292        7.9773519437
  H        29.9675257860       12.4453799001       12.1883992502
  H        28.9100618812       10.5147339907       13.3733894155
  H        25.2508644435       11.2045018398       11.2223215385
  H        26.3264308856       13.1251379824       10.0335328353
  H        27.2058797104       11.6569043552       14.7842459195
  H        30.9984997150       22.7843524247       12.0056273172
  H        32.0106490972       24.6619768814       13.3041626259
  H        35.7072290246       24.1260427842       11.1718881192
  H        34.6747422484       22.2535589801        9.8702186010
  H        33.6834205380       23.5792013432       14.7529340236
  H        25.7230018773        8.5914952145       11.3970209960
  H        30.9346060786       22.7466069265        3.9660860823
  H        31.9657547004       24.5976017972        2.6480335055
  H        35.6287236619       24.1075977107        4.8486778186
  H        34.5815255524       22.2546027446        6.1632292334
  H        33.6585644438       23.5657063983        1.2057513116
  H        40.6021336879       17.0840370954        4.6504986118
  H        32.5217737119       14.1385404637        8.2536554661
  H        29.9063012441       12.5039916494        3.9440669527
  H        28.8831087977       10.5930005588        2.6990705143
  H        25.1851299478       11.2160160837        4.8029797008
  H        26.2264929322       13.1158358682        6.0522114501
  H        27.1935288896       11.6741138395        1.2339754397
  H        33.2913100811       14.1848355259        6.4284406058
  H        33.4077835851       14.4113977517        9.6045844078
  H        32.1170046649       18.5263245979        5.1583649597
  H        30.2289925671       14.1875579317        8.0674439599
  H        16.1187316756        2.9633242716       12.1300883844
  H        14.9535706722        4.8203763979       13.3228311147
  H        17.3656101904        7.6860372866       11.2095464472
  H        18.5143255648        5.8185583763       10.0097198737
  H        16.7536040240        5.7396201357       14.7715597963
  H        44.8279324316       32.1402615708       11.9773277327
  H        45.9371770242       30.3413519094       13.3067423626
  H        43.6828072698       27.3781386939       11.1521686936
  H        42.6001162364       29.1899880533        9.8095787672
  H        44.2302693923       29.4366500672       14.7689747731
  H        14.8512081593        8.5463978863       11.3633262052
  H        44.8994855481       32.2341425667        3.9313425628
  H        46.0243732216       30.4130836844        2.6518672966
  H        43.7643755764       27.4841043033        4.8461571489
  H        42.6465578584       29.3177787952        6.1251824354
  H        44.2684207307       29.4704411193        1.2182282884
  H        35.0870071824       26.6202311725        4.6300783858
  H        36.6050704115       35.1341408801        8.1806367954
  H        16.1440088503        3.0129883453        3.9037150532
  H        14.9744632004        4.8563332004        2.6879729352
  H        17.3954052238        7.7473597693        4.7558566944
  H        18.5424493661        5.8934823539        5.9835097956
  H        16.7647144035        5.7555623951        1.2192612938
  H        36.2784435980       34.4826986392        6.2731462524
  H        36.3808333838       34.2092399644        9.4996678750
  H        40.5806650895       33.2028922181        5.1534016547
  H        17.4708238548        1.9476408630        7.9741923763
  H        29.4155090463       19.5887446659       12.5130518902
  H        29.6336918519       19.7658677076        3.5641165762
  H        30.3641219175       15.8044676282        3.9783031330
  H        31.0142184163       15.5697719800       12.3903336206
  H        28.5230218925       18.2152553332       14.7295403203
  H        29.3391843902       15.7189662254       14.5134705477
  H        31.9696205699       19.7010194905        1.6714947156
  H        30.7349498408       14.8096123643        1.4086021542
  H        32.9337027260       18.1953186089       15.4548440490
  H        18.8537880636        0.8691523470       12.3352775290
  H        40.5277562351       35.2292233759        3.9520393061
  H        42.3244395161       34.4193828719        3.5904828693
  H        22.0877523818        0.6915622091       12.3519277892
  H        11.5968931067       18.7128468692       12.3824100981
  H        52.2650568653       18.4310720751        3.6776496788
  H        49.2546306684       16.4771769840        3.5848757301
  H        10.1509731252       15.7983135579       12.2924758477
  H        50.8501074765       17.6925474549        3.9541692292
  H        10.0463370161       17.3947363461       12.0519339786
  H        20.2150595468        0.0022091926       12.0419732682
  H        39.1834838033       36.1243612356        3.6863525598
 Ni        31.0315764840       17.9102654414        2.9955613438
 Ni        31.2414942331       16.6276922379       -0.2460578898
 Ni        30.4795628912       18.8626792219       -0.0810199688
 Ni        30.0948220581       17.4813704045       13.0741715872
  O        10.6499520815       14.3651411215        5.4858124993
  O        12.6131932428       14.6575199943        6.5839134549
  O        49.1478489261       16.8459266266        7.9898182531
  O        50.3502240787       20.9359055086        5.6480807689
  O        48.3485259477       20.5932799466        6.6659568596
  O        11.0516657720       17.0538080828        6.5007461173
  O        50.3209649658       20.8817148963       10.4068650025
  O        48.3467088615       20.5867394249        9.3271300139
  O        49.5435671423       18.2483924726       10.0682739155
  O        12.3590784456       18.6246224592        7.9997211710
  O        48.6931956529       14.1486130738        6.7512971015
  O         8.2098516927       14.2104619504        9.3225855282
  O        10.7353729092       14.5067423211       10.6643524442
  O        12.5718340180       14.5828175947        9.3284964612
  O        22.8450109437        2.0438481379        5.4870368222
  O        21.6060089779        3.5928841665        6.5890989058
  O        42.0583247082       34.1374965429        7.9789421478
  O        37.9818989433       33.1388055337        5.5727126808
  O        39.2183057051       31.5765510512        6.6668523779
  O        20.3085247698        1.0398499882        6.5021089201
  O        38.0248866791       33.1862212476       10.4149815269
  O        39.2194814261       31.5840827423        9.3261049165
  O        40.6523144215       33.7694066275       10.0602043003
  O        18.2554164941        1.3763402821        7.9968268301
  O        44.6222283187       35.1005607717        6.7587348693
  O        24.2054411576       -0.0000010325        9.3208017003
  O        22.7531884152        2.0575413538       10.5836829531
  O        21.6247244160        3.5963201353        9.3430241130
  O        27.4935980200       18.7521675388        5.4962535663
  O        26.7625880417       16.9327025798        6.6510240910
  O        30.6642694060       19.4117420923        8.0095970004
  O        33.5829783245       16.2792384969        5.6608208578
  O        34.2782981009       18.1668377182        6.7322650761
  O        29.5744176613       17.0662123033        6.5752639177
  O        33.5530509049       16.3397234107       10.4142985157
  O        34.3011562209       18.2401984099        9.4054211553
  O        31.6551856410       18.3175578232       10.0799289285
  O        30.3211344208       15.1543368506        8.0680355402
  O        28.5523058089       21.0366764229        6.8337945672
  O        28.5128626364       20.9594591389        9.4011911806
  O        27.4603624781       18.6800822931       10.6577682610
  O        26.6933038473       16.9300379997        9.4126757569
  O        13.1485652566       18.6930601523       10.5872964805
  O        13.9194729854       16.9163292878        9.4052025824
  O        50.5960388864       19.3501590895        8.0205995178
  O        47.6825406736       16.3271411161       10.4173502658
  O        46.9506294570       18.1757012260        9.3252202136
  O        11.0696889634       17.0155489217        9.4895880706
  O        47.6758321340       16.3358528464        5.6528071933
  O        46.9263144115       18.2358188416        6.6639150368
  O        49.5686125096       18.3176963767        5.9823692997
  O        10.3186270734       15.1002145336        7.9971273261
  O        52.6707501067       21.0279004997        9.2418172417
  O        12.1468121209       20.8912229368        6.6732915354
  O        13.1076018799       18.6138066024        5.3257618819
  O        13.9573157954       16.9872036603        6.6652159725
  O        30.0000377200       14.4285813522       10.6591646090
  O        28.0769021217       14.6570078327        9.4814596472
  O        32.1403877568       16.8588956079        8.0578709312
  O        30.9658191790       20.9561268289       10.4026690982
  O        32.9473338539       20.6034914834        9.3354942967
  O        29.5581025390       17.0798602043        9.5580080395
  O        30.8766299145       20.9528776042        5.6611006882
  O        32.8807954701       20.5881668988        6.6637270214
  O        31.6876135933       18.2531956900        5.9897588554
  O        28.2794162644       18.6780820675        8.0661657570
  O        32.4955668964       14.2094210490        9.3257122010
  O        32.4021649427       14.2125068085        6.8191246101
  O        29.8743988850       14.5085156653        5.4093782995
  O        28.0420385484       14.5843071030        6.7479704691
  O        17.8892738180        1.9666703864       10.6627963466
  O        18.9562978870        3.5271506745        9.4079712080
  O        39.1687015330       34.1389583419        7.9972031784
  O        43.2802425592       33.0589725014       10.3317068576
  O        42.0345788643       31.5064483865        9.2416265210
  O        20.3177668414        1.0368612489        9.4800153651
  O        43.2760670931       33.1826615879        5.5749101569
  O        42.0052909577       31.5841499050        6.5829671136
  O        40.5790671449       33.7751161552        5.9358490831
  O        22.3673913368        1.3847923695        7.9979030735
  O        36.6727555903       35.0998300548        9.2332743296
  O        16.4455427527        0.0643765786        6.6683391455
  O        17.9365001531        2.0434192926        5.3263919866
  O        18.9191185101        3.5931330691        6.6659320278
  O        29.8283960087       18.9682256104        4.0841310993
  O        29.9105376957       18.9777162979       11.9363303359
  O        31.1754754527       16.3421979813        4.0762240140
  O        31.1420533249       16.4181062843       11.9174833332
  O        30.2023356853       15.5254205267        1.0119041281
  O        30.2160708955       15.9686426218       14.1705824718
  O        32.1439612794       18.0154083454       14.9100802709
  O        31.1377424464       19.2005344340        1.6030184933
  O        29.3552845361       18.6145248958       14.4169068881
  O        39.4567378963       35.2437774474        4.0019423938
  O        19.1416542703        0.0046816401       11.9905260481
  O        41.9697814589       35.1730342651        4.0872561729
  O        21.6912084587       -0.0695969693       11.8959712525
  O        51.3651016732       18.6142894107        4.0054092430
  O        10.7510194285       18.7472025818       11.9049724988
  O        50.0792519751       16.4127686274        4.0918016528
  O         9.5248623364       16.4830546675       11.9912017329
 Zr         9.2970751131       16.0528080832        6.1824882487
 Zr        49.8365500029       16.0068597788        9.7465345354
 Zr        22.0732732768        0.0301044455        6.1890241831
 Zr        42.4608964361       35.1534565769        9.8009546646
 Zr        29.5999635117       19.0818568266        6.2511894544
 Zr        29.5816957022       19.1856451081        9.8140699913
 Zr        11.0382993637       19.0518983095        9.8278416447
 Zr        11.0441583491       19.1547120998        6.2510939957
 Zr        31.3406399595       16.0997445225        9.8271764083
 Zr        31.4078779322       16.0255080226        6.2847509511
 Zr        18.6011792615       -0.0010882535        9.7633796239
 Zr        18.5064809840       -0.0073158094        6.2139033362
 Zr        12.3026520188       16.3237370314        7.9903452202
 Zr        48.6164134340       18.8329179994        8.0104604891
 Zr        20.3152826177        2.4737837778        7.9905437968
 Zr        40.6437359297       32.6872807499        7.9782874556
 Zr        28.3336709477       16.3505377334        8.0816280764
 Zr        32.6320426227       18.8501947245        8.0419976249
  H        30.1500497666       16.2164700977        1.7385212480
