     574
 i =      195, E =     -4778.8434488593
  C        11.8587806853       14.0535758821        5.7414309721
  C        12.4562975721       12.8907636350        5.0229602757
  C        11.7046504526       12.1719216239        4.0811775537
  C        12.2810371405       11.1097615485        3.3887583094
  C        13.6216030171       10.7398485955        3.6164498228
  C        14.3547258565       11.4434081401        4.5899810683
  C        13.7818617743       12.5083527521        5.2815739585
  C        14.2610087083        9.6490189992        2.8431321996
  C        14.2559990871        9.6565981324        1.4214131046
  C        13.7428193576       10.7585856229        0.6673191631
  C        49.1268287447       21.2331403046        5.8796396193
  C        48.5501327153       22.4011144436        5.1526178885
  C        49.3000991697       23.0681860327        4.1713933274
  C        48.7331770286       24.1072784595        3.4381188365
  C        47.4027575639       24.5092377188        3.6669359372
  C        46.6719268249       23.8606374974        4.6807309898
  C        47.2343408454       22.8157818489        5.4101736946
  C        46.7724549484       25.5868856961        2.8696445986
  C        46.7615288306       25.5573832734        1.4478738720
  C        47.2615065331       24.4423714228        0.7042825420
  C        14.8596448623        8.5700042322        0.7082589021
  C        14.8918388318        8.5971623689        3.5199066617
  C        49.1131966549       21.2034687170       10.1453083901
  C        48.5278502342       22.3649348446       10.8723273580
  C        49.2670820341       23.0256987603       11.8652241407
  C        48.6907958055       24.0603528646       12.5965870649
  C        47.3603679255       24.4571495274       12.3584030522
  C        46.6400044341       23.8122659350       11.3348174501
  C        47.2135063654       22.7762632476       10.6031113994
  C        46.7219118527       25.5321052116       13.1494859188
  C        46.7336834630       25.5283732908       14.5712007238
  C        47.2492461961       24.4291751313       15.3275200020
  C        40.6180509803       17.0924531011       15.3100411420
  C        40.6334202297       17.1002184806       12.5005854580
  C        11.8828778769       14.0862845124       10.2854723905
  C        12.4718613417       12.9101981492       10.9894709751
  C        11.7141099086       12.1769919102       11.9154201527
  C        12.2803571306       11.0942165085       12.5836188876
  C        13.6190758215       10.7200609005       12.3518019724
  C        14.3572353194       11.4356180709       11.3911162273
  C        13.7921893025       12.5171407224       10.7186322444
  C        14.2524261668        9.6231181889       13.1222546475
  C        14.2514324291        9.6434622478       14.5441112170
  C        13.7419652199       10.7526927149       15.2910499178
  C        22.5137768054        3.2458718364        5.7518418107
  C        23.2320390131        4.3495079747        5.0510195746
  C        24.2302339625        4.0651108537        4.1070152355
  C        24.8626290674        5.1009306067        3.4237643079
  C        24.5134383136        6.4450951272        3.6630674724
  C        23.5428890361        6.7210178307        4.6438229628
  C        22.9059980868        5.6868519337        5.3258915176
  C        25.1260952183        7.5480833834        2.8857676659
  C        25.1044382072        7.5379172774        1.4636266954
  C        24.4007423637        6.5397353925        0.7175386028
  C        38.3017325970       31.9293673228        5.8497086383
  C        37.5706614693       30.8397838032        5.1420044809
  C        36.6092446470       31.1434062522        4.1659477275
  C        35.9907650489       30.1229180362        3.4490974468
  C        36.3191180870       28.7737858002        3.6864579050
  C        37.2503546962       28.4776045795        4.6995541213
  C        37.8728959546       29.4967992377        5.4153720801
  C        35.7171519360       27.6824592750        2.8883781796
  C        35.7485129544       27.6993784996        1.4670398414
  C        36.4546655493       28.7025837456        0.7311366674
  C        25.7329554028        8.6044615300        0.7425506628
  C        25.7228677270        8.6245254699        3.5548263912
  C        38.3294313672       31.9628162149       10.1573707108
  C        37.6079078997       30.8906881435       10.9001312687
  C        36.6802116300       31.2010155313       11.9062373334
  C        36.0695580715       30.1836148839       12.6366789821
  C        36.3724356056       28.8306616011       12.3843198298
  C        37.2781038004       28.5303509457       11.3484212850
  C        37.8909053813       29.5442215438       10.6192841166
  C        35.7629415746       27.7323069005       13.1679455484
  C        35.7718424649       27.7250265858       14.5899222598
  C        36.4655841122       28.7149922611       15.3544117043
  C        46.1355787936       26.6209003778       15.2814371455
  C        46.0878007994       26.5804473728       12.4735243607
  C        22.4629642283        3.2552398020       10.2566795904
  C        23.1629453206        4.3617298209       10.9774465742
  C        24.1702071123        4.0713764015       11.9115143656
  C        24.8053157274        5.0985026246       12.6053609848
  C        24.4534518025        6.4456536083       12.3879482975
  C        23.4690744162        6.7293282356       11.4223527292
  C        22.8293969304        5.7024235102       10.7287196686
  C        25.0912924667        7.5404403077       13.1612042879
  C        25.0870115993        7.5332950727       14.5839283967
  C        24.3903979599        6.5388149846       15.3406430384
  C        26.5911196425       17.8847246268        5.8203362397
  C        25.2880947135       17.9211984178        5.0893178817
  C        25.0162128937       18.9337256043        4.1551145286
  C        23.8116545372       18.9411051984        3.4541671386
  C        22.8400950258       17.9430289633        3.6701535676
  C        23.1065800358       16.9532447405        4.6351914079
  C        24.3152132599       16.9372434673        5.3300391364
  C        21.5705541669       17.9249557300        2.8994462822
  C        21.5746901920       17.9130395516        1.4769949747
  C        22.7830100061       17.8043435355        0.7187422276
  C        34.4230869188       17.2257111377        5.9127613434
  C        35.7108930914       17.1627394915        5.1596020544
  C        35.9167643658       16.1811187009        4.1766393202
  C        37.0985275575       16.1592349391        3.4392628721
  C        38.1088167405       17.1150090197        3.6679591859
  C        37.9045424980       18.0761666227        4.6758240008
  C        36.7200054468       18.1047493181        5.4083798474
  C        39.3663780987       17.1151194918        2.8850267655
  C        39.3622497876       17.1237257223        1.4635700631
  C        38.1556037459       17.2478044955        0.7053864878
  C        20.3293844728       17.9265776012        0.7658388228
  C        20.3449116962       17.9197496891        3.5794398406
  C        34.4395817113       17.2383401957       10.1888055160
  C        35.7414723894       17.1361373464       10.9104639152
  C        35.9402362089       16.1649456835       11.9028041549
  C        37.1321228777       16.1324325991       12.6229472413
  C        38.1525397280       17.0709006804       12.3722249052
  C        37.9590196744       18.0147912637       11.3461571758
  C        36.7672077798       18.0517689104       10.6286185198
  C        39.4017056091       17.0886460547       13.1657355753
  C        39.3803231304       17.1117119762       14.5870262124
  C        38.1636011004       17.2406407149       15.3288171720
  C        35.1405576987       26.6454960472       15.2926382541
  C        35.1723467006       26.6627365980       12.4835865100
  C        26.5767234706       17.8289976019       10.3271413226
  C        25.2607450400       17.8776959579       11.0313401194
  C        24.9935942693       18.8895723892       11.9656992062
  C        23.7758368950       18.9167823646       12.6399158444
  C        22.7962414147       17.9319765373       12.4028982740
  C        23.0572882803       16.9451613688       11.4351074514
  C        24.2756686744       16.9159890173       10.7592915488
  C        21.5324013201       17.9132265420       13.1761524498
  C        21.5547551608       17.9045557703       14.5979025966
  C        22.7731143308       17.7989367280       15.3419417006
  C        14.0476197456       17.8292691109       10.2884001259
  C        15.3529408892       17.8870134459       11.0122741389
  C        15.6091565914       18.8881420557       11.9622883264
  C        16.8186984602       18.9088138110       12.6543040158
  C        17.8069280832       17.9315362110       12.4185072666
  C        17.5557980533       16.9553162987       11.4357749392
  C        16.3455125349       16.9297539649       10.7456102428
  C        19.0758004070       17.9142880845       13.1882440575
  C        19.0728179480       17.9073303583       14.6106644073
  C        17.8649159354       17.8013092257       15.3695645415
  C        46.8030199834       17.2166838382       10.1576610851
  C        45.5104296463       17.1477172114       10.9003023839
  C        45.3073130921       16.1663450486       11.8830707501
  C        44.1238906958       16.1389810095       12.6165167923
  C        43.1124535163       17.0927376608       12.3896402541
  C        43.3125307156       18.0534117217       11.3796881848
  C        44.4969942652       18.0848384292       10.6472891516
  C        41.8582630211       17.0966005798       13.1784094240
  C        41.8645886378       17.1033571574       14.6007275998
  C        43.0732009685       17.2034669617       15.3594514133
  C        20.3186401097       17.9218459179       15.3207935104
  C        20.3011415275       17.8987579415       12.5079442169
  C        46.7830009335       17.2321368776        5.8866445544
  C        45.4791003559       17.1270188178        5.1684535090
  C        45.2586948643       16.1267619680        4.2090879389
  C        44.0699061738       16.0980970334        3.4831867838
  C        43.0698074886       17.0666408564        3.6982083893
  C        43.2811836265       18.0377381424        4.6950961728
  C        44.4710988735       18.0725789007        5.4163140243
  C        41.8218208962       17.0857862711        2.9010540382
  C        41.8460346092       17.0965193741        1.4793183418
  C        43.0646708654       17.1971612339        0.7365630061
  C        46.1533098988       26.6372086396        0.7262072793
  C        46.1625172354       26.6559826665        3.5358472329
  C        14.0440578521       17.8296448597        5.7077042281
  C        15.3631643715       17.8990300416        5.0144872084
  C        15.6375843186       18.9122934618        4.0840244786
  C        16.8657068940       18.9451318331        3.4277342702
  C        17.8464471484       17.9639872126        3.6766847639
  C        17.5785287148       16.9790866368        4.6445686530
  C        16.3524152497       16.9455996883        5.3042670924
  C        19.1141821957       17.9384196992        2.9097010769
  C        19.0930241347       17.9185537468        1.4883864311
  C        17.8747230111       17.8062252040        0.7457702418
  C        28.8117186127       14.0841411512       10.3602295244
  C        28.2116574347       12.9070761973       11.0521284351
  C        28.9442310050       12.1665987875       11.9914806404
  C        28.3521037783       11.0911041566       12.6495097288
  C        27.0140242161       10.7310102980       12.3911739279
  C        26.3031472819       11.4517315638       11.4145342515
  C        26.8923039358       12.5280595588       10.7562218177
  C        26.3501917495        9.6496189395       13.1561407054
  C        26.3421447333        9.6739524564       14.5773824642
  C        26.8510866202       10.7849322214       15.3216251619
  C        32.1784470161       21.2434070730       10.1499110620
  C        32.7709794241       22.4109635957       10.8658690367
  C        32.0220131879       23.0911519988       11.8382818428
  C        32.5925042311       24.1310326336       12.5656423596
  C        33.9274218313       24.5187297701       12.3407798105
  C        34.6586411319       23.8582235080       11.3356571016
  C        34.0906063429       22.8126449894       10.6104983052
  C        34.5566545464       25.5929701056       13.1419958620
  C        34.5482985608       25.5627894813       14.5635723893
  C        34.0393334836       24.4466373275       15.3000163990
  C        25.7290337880        8.5983834076       15.2974648265
  C        25.7082585561        8.6010534338       12.4841808043
  C        32.1029573140       21.2257466099        5.8862669106
  C        32.6950733537       22.3739999234        5.1378086460
  C        31.9578562655       23.0339619728        4.1423931747
  C        32.5369518196       24.0634949264        3.4037882854
  C        33.8661403213       24.4638816795        3.6442448352
  C        34.5858273190       23.8166521867        4.6667472777
  C        34.0120870132       22.7808282464        5.3994077829
  C        34.5046926836       25.5473382289        2.8617975182
  C        34.5207907999       25.5399899906        1.4400350272
  C        34.0253776446       24.4362810800        0.6767815704
  C        40.6086469924       17.0939081805        0.7550857808
  C        40.5899407279       17.1121746831        3.5655485771
  C        28.7254325793       14.1005959904        5.7822681176
  C        28.1279849879       12.9456583382        5.0492842399
  C        28.8721908783       12.2470704864        4.0855310219
  C        28.3028937503       11.1777860690        3.3979311367
  C        26.9730536847       10.7816180452        3.6459119576
  C        26.2469728768       11.4674014629        4.6382634069
  C        26.8149360417       12.5349622913        5.3303055185
  C        26.3396319941        9.6840490421        2.8761168030
  C        26.3379812253        9.6923028953        1.4539644923
  C        26.8459671595       10.7949910387        0.6974531496
  C        18.1353936986        3.1795298843       10.3175350415
  C        17.4051604679        4.2765458438       11.0157367062
  C        16.3905893541        3.9978423735       11.9443991934
  C        15.7423725135        5.0376920181       12.6076886576
  C        16.0927431540        6.3816316081       12.3668414562
  C        17.0809669928        6.6514024255       11.4019533305
  C        17.7303817281        5.6142178790       10.7369544981
  C        15.4684285266        7.4894355270       13.1298221598
  C        15.4841777347        7.4892904876       14.5515663773
  C        16.1860602511        6.4960048774       15.3048765171
  C        42.9456424395       31.8596434687       10.0726669746
  C        43.6458321162       30.7721879625       10.8171793107
  C        44.5915706660       31.0934470317       11.8030580093
  C        45.1972932863       30.0878582544       12.5506814013
  C        44.8707719073       28.7348125903       12.3358647489
  C        43.9447038348       28.4205352777       11.3228565787
  C        43.3358336108       29.4257135841       10.5749188443
  C        45.4885200252       27.6554714392       13.1389078524
  C        45.4927144395       27.6809923140       14.5606045441
  C        44.8055360867       28.6889223402       15.3073050827
  C        14.8554935556        8.5620616182       15.2638002560
  C        14.8731023204        8.5611612648       12.4511152343
  C        42.9463022689       31.9615549525        5.8090897486
  C        43.6917446656       30.8853645189        5.0956859614
  C        44.6563604015       31.1912317916        4.1234081528
  C        45.2778439393       30.1716527721        3.4056112545
  C        44.9540891218       28.8213375340        3.6432478848
  C        44.0206112600       28.5236861439        4.6540349715
  C        43.3924118192       29.5404641863        5.3662820211
  C        45.5630532088       27.7239415792        2.8578908036
  C        45.5333356820       27.7173189529        1.4365824251
  C        44.8268123103       28.7074610778        0.6837016225
  C        35.1275897390       26.6332335620        0.7374916988
  C        35.1138582489       26.6053322338        3.5472423172
  C        18.1483497709        3.2468120853        5.7067350421
  C        17.4297945135        4.3437904786        4.9974983752
  C        16.4145526098        4.0525078203        4.0739616779
  C        15.7662891051        5.0831094266        3.3984634289
  C        16.1209695609        6.4283761573        3.6210310467
  C        17.1123334066        6.7117656196        4.5783102817
  C        17.7599796189        5.6828804118        5.2581903385
  C        15.4904423871        7.5240058736        2.8484484955
  C        15.4960365156        7.5070874895        1.4272958219
  C        16.1926471610        6.5052165655        0.6806879898
  H        10.6725073241       12.4660102435        3.9041839569
  H        11.6947237657       10.5513165498        2.6622115188
  H        15.3917563372       11.1688097780        4.7717191754
  H        14.3513857219       13.0714824692        6.0170374451
  H        13.3761022728       11.6309358413        1.2004636882
  H        50.3227228053       22.7479690994        3.9864861010
  H        49.3196414081       24.6223627935        2.6804023025
  H        45.6425688908       24.1617164081        4.8641532538
  H        46.6634124584       22.2908341432        6.1725320252
  H        47.6301708887       23.5759945033        1.2458787817
  H        14.8723710131        8.5886484161        4.6082203016
  H        50.2871328951       22.7028665371       12.0601444553
  H        49.2692337269       24.5757973507       13.3600649287
  H        45.6106138074       24.1095421953       11.1457253546
  H        46.6526517449       22.2541600499        9.8315320546
  H        47.6081469253       23.5521386869       14.7965709078
  H        40.6392536484       17.0606200316       11.4129702631
  H        48.6870826499       14.0951537128        7.8000205980
  H        10.6807104887       12.4662823138       12.0928698342
  H        11.6883798058       10.5238605992       13.2961921735
  H        15.3926141057       11.1575351763       11.2051736175
  H        14.3648419675       13.0865336660        9.9903648520
  H        13.3751984213       11.6212552089       14.7522886866
  H        47.9302294856       14.2183895622        9.7109325806
  H        47.7799377743       14.3739037765        6.4953280954
  H        49.0832258542       18.5522579064       10.8671256941
  H        10.4160202201       14.1343676883        7.9987424569
  H        24.4887321509        3.0254029157        3.9189074650
  H        25.6367654705        4.8781448042        2.6926369864
  H        23.2643763345        7.7551193462        4.8360043704
  H        22.1351303351        5.8924766665        6.0646645039
  H        23.8368626359        5.7849840220        1.2578999064
  H        36.3717528453       32.1865754543        3.9712074710
  H        35.2451219601       30.3616341708        2.6939100074
  H        37.5110912679       27.4385629490        4.8899380110
  H        38.6177170449       29.2761670848        6.1763115222
  H        37.0195809511       29.4517537313        1.2781562579
  H        25.7523197510        8.6117004337        4.6429104236
  H        36.4584904556       32.2455714144       12.1129313515
  H        35.3444159518       30.4295070493       13.4092805540
  H        37.5236397751       27.4897094275       11.1471807634
  H        38.6125245373       29.3175371267        9.8382516295
  H        37.0400516952       29.4732440671       14.8301142549
  H        46.1091501632       26.5879353818       11.3854866104
  H        44.6704394750       35.1162786885        7.8103229391
  H        24.4462562756        3.0321361952       12.0750303581
  H        25.5898430095        4.8662211053       13.3224104505
  H        23.1857830379        7.7649488756       11.2455843048
  H        22.0538222396        5.9188465466        9.9976281218
  H        23.8179010375        5.7838876675       14.8095360526
  H        44.9540461476       34.3893131838        9.6944353632
  H        44.8996589747       34.2056171058        6.4887232806
  H        40.6649839168       33.2096631839       10.8522156329
  H        23.1520361149        1.9579467882        8.0037133763
  H        25.7595287530       19.7116042317        3.9948290289
  H        23.6065761094       19.7306637478        2.7342728151
  H        22.3671860492       16.1745271707        4.8110822473
  H        24.5322643285       16.1595621721        6.0587325677
  H        23.7243084087       17.6943765824        1.2496255337
  H        35.1399087801       15.4371571538        4.0104949904
  H        37.2588037884       15.3889651337        2.6877464852
  H        38.6754083371       18.8225426766        4.8565539062
  H        36.5471558869       18.8609151788        6.1707785566
  H        37.2182261639       17.3820194634        1.2372998913
  H        20.3493669290       17.9545494150        4.6674765681
  H        35.1421460131       15.4555384588       12.1096937605
  H        37.2844725115       15.3757785185       13.3894944985
  H        38.7393005473       18.7464199057       11.1469423824
  H        36.5970460829       18.7999691649        9.8582655779
  H        37.2321055411       17.3673980820       14.7845338533
  H        35.1451488144       26.6895933848       11.3959082888
  H        28.4896598846       21.1221024098        7.9716972326
  H        25.7540700758       19.6460689326       12.1455327330
  H        23.5684386314       19.7054449371       13.3599892729
  H        22.3090809258       16.1779590389       11.2466313763
  H        24.4936052026       16.1419263044       10.0273820543
  H        23.7067170909       17.6834588780       14.7992727915
  H        29.0092090119       21.7184529452        9.7670249573
  H        29.1307009082       21.7995457819        6.6262093508
  H        32.0579177533       18.5647052674       11.0042692426
  H        27.4069558973       19.0842462256        8.1048356687
  H        14.8497885660       19.6455634763       12.1434467101
  H        17.0130353624       19.6911184465       13.3849036481
  H        18.3081625460       16.1929777901       11.2440278533
  H        16.1403954731       16.1622451755       10.0030868630
  H        16.9238512388       17.6831544300       14.8403042595
  H        46.0942021758       15.4383190498       12.0657470781
  H        43.9685807120       15.3701817417       13.3702951517
  H        42.5401120686       18.7982030886       11.1993470821
  H        44.6666404190       18.8413909422        9.8846523021
  H        44.0147589731       17.3162709965       14.8295687926
  H        20.2969348355       17.9292150789       11.4198169488
  H        46.0346878239       15.3850968863        4.0335928323
  H        43.9038289369       15.3208120337        2.7404145379
  H        42.5158584545       18.7913727780        4.8687440809
  H        44.6532541370       18.8415918353        6.1630629230
  H        43.9996610438       17.3038475158        1.2789530329
  H        46.1994115499       26.6825097515        4.6232916634
  H        52.7413036369       21.0627046905        8.1947275743
  H        14.8788328701       19.6677949465        3.8922766434
  H        17.0786531428       19.7338186558        2.7093295843
  H        18.3274582335       16.2153653897        4.8438630026
  H        16.1296150308       16.1728377875        6.0359216625
  H        16.9410315987       17.6919188558        1.2882148900
  H        52.3228680291       21.6733993429        6.2941197465
  H        52.0135851375       21.7023711155        9.4957099017
  H        49.0674687742       18.6078001141        5.2039902023
  H        13.2475869113       19.0160516492        7.9770476685
  H        29.9746422263       12.4492891630       12.1947831156
  H        28.9220453793       10.5176174245       13.3773238205
  H        25.2689015798       11.1844033371       11.2077760010
  H        26.3399443396       13.1066493383       10.0198887089
  H        27.2186298732       11.6521071513       14.7810723695
  H        30.9966543345       22.7790428963       12.0203849585
  H        32.0072213804       24.6569667247       13.3167227941
  H        35.6918499855       24.1487669884       11.1567783437
  H        34.6608200156       22.2761827396        9.8556309319
  H        33.6838171576       23.5781796544       14.7527380095
  H        25.7334285173        8.5832530097       11.3960292740
  H        30.9315677430       22.7222440574        3.9597125944
  H        31.9589902023       24.5773824867        2.6386974678
  H        35.6146693520       24.1149792129        4.8574856610
  H        34.5724684237       22.2593075216        6.1718652863
  H        33.6598283262       23.5592348447        1.2033474218
  H        40.5825259125       17.0784161500        4.6534033048
  H        32.5150846599       14.1497290689        8.2632574123
  H        29.8999971908       12.5490907567        3.8969103195
  H        28.8886619249       10.6316136669        2.6617466411
  H        25.2182387805       11.1740812101        4.8373419800
  H        26.2515093273       13.0775660838        6.0858421252
  H        27.2083618681       11.6709564063        1.2271123401
  H        33.2872861075       14.1858124562        6.4253488042
  H        33.4077874169       14.4123388996        9.6039368036
  H        32.1233393246       18.5500072195        5.1770172612
  H        30.2321024027       14.1945192810        8.0756359156
  H        16.1201598767        2.9611340231       12.1320542916
  H        14.9537570064        4.8179595482       13.3241606653
  H        17.3623110232        7.6843943653       11.2078752688
  H        18.5115027766        5.8171726414       10.0082162788
  H        16.7525564809        5.7385676620       14.7714555159
  H        44.8280761595       32.1404877333       11.9771586702
  H        45.9373014690       30.3415697611       13.3065002319
  H        43.6818649483       27.3784920179       11.1528077995
  H        42.5990446810       29.1904380163        9.8104013714
  H        44.2300592407       29.4366335144       14.7690498489
  H        14.8490901878        8.5441239176       11.3629033637
  H        44.8998516279       32.2339135623        3.9319038980
  H        46.0247320884       30.4128993799        2.6523618072
  H        43.7636361990       27.4839615837        4.8456120803
  H        42.6458910187       29.3176812710        6.1247152035
  H        44.2682530140       29.4702647794        1.2183544541
  H        35.0713853080       26.6160065986        4.6347370229
  H        36.6076396436       35.1344653516        8.1848055072
  H        16.1434119899        3.0129199670        3.9043752586
  H        14.9739488988        4.8561850938        2.6884191597
  H        17.3958657822        7.7472366401        4.7551495910
  H        18.5428275532        5.8934085567        5.9829639792
  H        16.7643030495        5.7551826532        1.2191779928
  H        36.2778376052       34.4835436546        6.2733957981
  H        36.3853158665       34.2075705722        9.5001119679
  H        40.5786435588       33.2024522493        5.1535366721
  H        17.4750293427        1.9456001892        7.9768245985
  H        29.4539294336       19.5340983555       12.6387591490
  H        28.7816955103       18.7563917643        3.8202073003
  H        30.5353506210       15.6855210631        3.8299571351
  H        31.1275772184       15.5596030145       12.5313425653
  H        28.6878454014       18.1811810777       14.9310975109
  H        29.6593865293       15.9174206718       15.0108754254
  H        31.1758624049       20.2022521650        2.0951818641
  H        33.5472804447       16.3442207631        1.8634887172
  H        28.4821553586       15.6712846302        2.0803147525
  H        32.9357344562       18.4051664072       15.8749279737
  H        18.9044664428        0.8517877959       12.3626242068
  H        40.5244955025       35.2297965719        3.9513842376
  H        42.3245173150       34.4191419613        3.5895385709
  H        22.0968022390        0.6989821911       12.3434206989
  H        11.5968864169       18.7126331839       12.3825128059
  H        52.2650686895       18.4312950146        3.6775468260
  H        49.2550538540       16.4767323887        3.5844134784
  H        10.1497887563       15.7983059738       12.2928669925
  H        50.8502419060       17.6926216362        3.9541534806
  H        10.0457954499       17.3946089091       12.0519288666
  H        20.2921205179        0.0043667973       12.0341114004
  H        39.1817531776       36.1252810354        3.6889491391
 Ni        31.0277199208       18.0117228234        3.1619347117
 Ni        31.6632328812       16.2819735470        0.0830708167
 Ni        30.6043156894       18.8472008395        0.1698242506
 Ni        30.2735516855       17.5113150879       13.3243726516
  O        10.6498960969       14.3651879972        5.4858482894
  O        12.6131359468       14.6574617752        6.5839068284
  O        49.1477113310       16.8459180097        7.9896969587
  O        50.3502649134       20.9357999842        5.6481115631
  O        48.3485584238       20.5932532321        6.6659775708
  O        11.0515444354       17.0538082408        6.5007289055
  O        50.3209388067       20.8816072562       10.4068583352
  O        48.3466996267       20.5866665077        9.3271134777
  O        49.5436514131       18.2484524790       10.0681899947
  O        12.3589597130       18.6246472212        7.9997878160
  O        48.6931591750       14.1487236682        6.7512532353
  O         8.2098907788       14.2104387450        9.3225250282
  O        10.7353242859       14.5067827556       10.6643969237
  O        12.5717835774       14.5827819988        9.3285975904
  O        22.8453237702        2.0440780397        5.4866835051
  O        21.6070299095        3.5935186408        6.5881674311
  O        42.0594417172       34.1370682471        7.9767228458
  O        37.9817321957       33.1376549021        5.5727927126
  O        39.2180452922       31.5760046454        6.6667222095
  O        20.3091609792        1.0400459339        6.5017984303
  O        38.0257812497       33.1867671719       10.4159708478
  O        39.2190187427       31.5838829650        9.3267654657
  O        40.6543680848       33.7682735205       10.0580617684
  O        18.2594634416        1.3739357121        7.9982660766
  O        44.6227654973       35.1002828855        6.7567519278
  O        24.2068724264       -0.0001443014        9.3203405387
  O        22.7533173656        2.0566545625       10.5832864530
  O        21.6253021056        3.5964874658        9.3434468537
  O        27.4466950816       18.8068492447        5.5658440408
  O        26.7605164964       16.9325539058        6.6562256651
  O        30.6654965253       19.4101232035        8.0792232185
  O        33.5467916249       16.3317341876        5.6546441579
  O        34.2784198978       18.1818190861        6.7434612571
  O        29.5718286964       17.0717514282        6.5787784965
  O        33.5548731154       16.3397763171       10.4172662749
  O        34.3014608815       18.2402658629        9.4087167811
  O        31.6555680736       18.3124659498       10.1550388004
  O        30.3249556400       15.1613710912        8.0786980474
  O        28.5170782481       21.0965343598        6.9054965097
  O        28.5171687767       20.9547650225        9.4198961292
  O        27.4643529176       18.6789178897       10.6619763709
  O        26.6957158536       16.9311616567        9.4133122501
  O        13.1492151640       18.6928008499       10.5875137586
  O        13.9195469992       16.9162120579        9.4050894266
  O        50.5959373849       19.3501516775        8.0206010160
  O        47.6829194747       16.3270241976       10.4173899377
  O        46.9503299085       18.1755599355        9.3255753007
  O        11.0696389984       17.0156402561        9.4896510827
  O        47.6738491093       16.3361662038        5.6522676378
  O        46.9248187084       18.2359991922        6.6632205640
  O        49.5684106939       18.3176849988        5.9823092775
  O        10.3185654553       15.1002135146        7.9971499084
  O        52.6707530736       21.0278700087        9.2418283592
  O        12.1468104248       20.8911604515        6.6732631879
  O        13.1078912764       18.6136045758        5.3257457895
  O        13.9564825799       16.9866837324        6.6659117322
  O        30.0027656584       14.4348951009       10.6657650169
  O        28.0802970715       14.6573573152        9.4841230880
  O        32.1346455316       16.8591508993        8.0825484458
  O        30.9638524803       20.9525842220       10.4119344898
  O        32.9453532216       20.6053516934        9.3433816377
  O        29.5665664701       17.0791149467        9.5761583679
  O        30.8731865183       20.9475924933        5.6668185770
  O        32.8797540426       20.5853531913        6.6695458951
  O        31.6720957026       18.2657444501        5.9971193505
  O        28.2905132661       18.6818289562        8.0833199025
  O        32.4930888231       14.2138274834        9.3312456476
  O        32.3999127376       14.2184315074        6.8191517624
  O        29.8782571992       14.5163520287        5.4088315553
  O        28.0438756209       14.5856387091        6.7478558529
  O        17.8898591883        1.9653570738       10.6634707767
  O        18.9563021931        3.5265955664        9.4083594729
  O        39.1693442359       34.1392788845        7.9994405591
  O        43.2804539592       33.0593263014       10.3313839086
  O        42.0346341554       31.5065582350        9.2414858625
  O        20.3215458854        1.0375518597        9.4787609965
  O        43.2760597131       33.1825437252        5.5747566825
  O        42.0051809027       31.5841485647        6.5829705983
  O        40.5788294836       33.7750350147        5.9357224424
  O        22.3686012732        1.3851290622        7.9971000036
  O        36.6741846221       35.0997475282        9.2357937263
  O        16.4459827485        0.0647746601        6.6681169870
  O        17.9364560641        2.0433344010        5.3266393549
  O        18.9190606688        3.5931441173        6.6660272129
  O        29.6628608710       18.9775690682        4.1691718400
  O        29.9395048287       18.9088985399       12.0689387147
  O        31.3032924362       16.2671345974        4.0030563485
  O        31.2153613107       16.4124101408       12.0632799756
  O        32.6593305128       15.9663163986        1.7470524458
  O        29.0192470294       15.9724298993        1.3278550106
  O        30.5208021116       16.0629582554       14.5696216001
  O        32.1637478672       18.0225107799       15.4138730081
  O        31.3483051916       19.2803556764        1.8318013492
  O        29.5156124420       18.6144515012       14.6512631321
  O        39.4554939084       35.2439762126        4.0021467039
  O        19.2009088597        0.0037186463       11.9879013455
  O        41.9700730071       35.1726410591        4.0866873755
  O        21.7009279925       -0.0690105880       11.8980344492
  O        51.3651294345       18.6143466667        4.0054345247
  O        10.7510873119       18.7471438029       11.9049549360
  O        50.0794127424       16.4128038045        4.0918234651
  O         9.5239813621       16.4831658473       11.9911855045
 Zr         9.2971644073       16.0528821742        6.1823689164
 Zr        49.8367466606       16.0067703982        9.7464824352
 Zr        22.0724852752        0.0308937319        6.1860536719
 Zr        42.4635123300       35.1520099421        9.7914629513
 Zr        29.5797366845       19.1338254861        6.3135311325
 Zr        29.5868869632       19.1721446319        9.8965602288
 Zr        11.0384400002       19.0520188099        9.8279208077
 Zr        11.0440962265       19.1548563867        6.2511669696
 Zr        31.3384596126       16.1064626772        9.8996709981
 Zr        31.3990434433       16.0364087247        6.3082320641
 Zr        18.6071443776        0.0004375412        9.7752826535
 Zr        18.5060021442       -0.0086657697        6.2171099174
 Zr        12.3024988521       16.3234250420        7.9906191257
 Zr        48.6164042748       18.8330420586        8.0102263548
 Zr        20.3152049096        2.4743159125        7.9898938080
 Zr        40.6410935179       32.6873843181        7.9778531214
 Zr        28.3469207055       16.3510493399        8.0825045172
 Zr        32.6242904913       18.8490268430        8.0639270967
  H        29.5308881910       16.7514789398        1.6594024692
  H        32.1944815662       16.0123975506        2.6624646156
