     568
 i =       97, E =     -4744.3768618831
  C        11.8588046367       14.0536098565        5.7415361820
  C        12.4563402280       12.8906827009        5.0232029362
  C        11.7045349810       12.1715048699        4.0818275668
  C        12.2809311437       11.1092979591        3.3894893300
  C        13.6216179215       10.7397753543        3.6169938424
  C        14.3549371774       11.4436534794        4.5901146760
  C        13.7820298676       12.5086432946        5.2815945907
  C        14.2611325909        9.6490768767        2.8436120878
  C        14.2564093572        9.6569474206        1.4219094021
  C        13.7432223464       10.7590739396        0.6680198070
  C        49.1268690847       21.2331755851        5.8797748754
  C        48.5500890880       22.4011534865        5.1526723263
  C        49.3001290474       23.0684860360        4.1717049862
  C        48.7331835715       24.1076093233        3.4384783742
  C        47.4026540971       24.5092522987        3.6671237713
  C        46.6716870880       23.8603547897        4.6806038773
  C        47.2341577339       22.8154723213        5.4099759828
  C        46.7723848011       25.5869441520        2.8698548515
  C        46.7613170182       25.5573258184        1.4480908425
  C        47.2612516234       24.4422317680        0.7045957884
  C        14.8603306412        8.5705908146        0.7086561045
  C        14.8919053177        8.5971395150        3.5202749794
  C        49.1131972214       21.2033781438       10.1453937545
  C        48.5277636302       22.3647114307       10.8726438226
  C        49.2670266639       23.0254699121       11.8654947123
  C        48.6907180970       24.0600605997       12.5969324321
  C        47.3602863004       24.4567811891       12.3587376445
  C        46.6398297293       23.8118246288       11.3352823434
  C        47.2133661134       22.7758775562       10.6035352891
  C        46.7218444970       25.5317787523       13.1497481625
  C        46.7335179359       25.5281377063       14.5714549140
  C        47.2489700789       24.4289285092       15.3278337448
  C        40.6211297675       17.1012412137       15.3086907400
  C        40.6297756389       17.1088155642       12.4990102795
  C        11.8830045406       14.0866024851       10.2855036516
  C        12.4724215413       12.9108992378       10.9898773612
  C        11.7148230984       12.1774982607       11.9157538090
  C        12.2814179090       11.0950224460       12.5841403570
  C        13.6203244951       10.7215045168       12.3525032066
  C        14.3584387433       11.4373480409       11.3920267215
  C        13.7930012034       12.5185432696       10.7193693236
  C        14.2538856929        9.6246818650       13.1228658653
  C        14.2525813146        9.6445996881       14.5447041319
  C        13.7426878733       10.7535460155       15.2917653184
  C        22.5124452732        3.2450448493        5.7522055699
  C        23.2280905640        4.3492849502        5.0509045796
  C        24.2256400388        4.0664104465        4.1059900486
  C        24.8551281136        5.1036256124        3.4224997651
  C        24.5032324200        6.4466991630        3.6632421371
  C        23.5333103592        6.7211553936        4.6448015042
  C        22.8992258208        5.6856348034        5.3268765933
  C        25.1135469954        7.5507498304        2.8867632801
  C        25.0909848682        7.5413387331        1.4649350858
  C        24.3874248268        6.5433680523        0.7183260575
  C        38.3035610270       31.9301517275        5.8489133565
  C        37.5760036863       30.8402267598        5.1385852669
  C        36.6171050995       31.1429638288        4.1599809560
  C        36.0022780803       30.1216920381        3.4412143555
  C        36.3319052270       28.7732363002        3.6800913746
  C        37.2613018955       28.4779211105        4.6949841400
  C        37.8802849481       29.4978723533        5.4124443711
  C        35.7310940128       27.6809436627        2.8832089607
  C        35.7611498061       27.6965743822        1.4620588939
  C        36.4671709111       28.6988035606        0.7247085912
  C        25.7189626483        8.6085112939        0.7447953474
  C        25.7096653500        8.6267168729        3.5571146778
  C        38.3289976686       31.9625350198       10.1557759199
  C        37.6078006456       30.8891818903       10.8972940420
  C        36.6796530334       31.1975519154       11.9034626122
  C        36.0705662623       30.1785866615       12.6330218177
  C        36.3756135408       28.8263815007       12.3794616348
  C        37.2810671379       28.5279421897       11.3429910355
  C        37.8923570005       29.5433879454       10.6148213262
  C        35.7687480526       27.7271142493       13.1636613763
  C        35.7804408874       27.7202520259       14.5854656541
  C        36.4760344283       28.7103845766       15.3480258972
  C        46.1355026145       26.6207741330       15.2815874417
  C        46.0879013043       26.5801421249       12.4736910668
  C        22.4621218824        3.2556513154       10.2567423099
  C        23.1597132808        4.3633965285       10.9776054342
  C        24.1655051391        4.0751857858       11.9138138774
  C        24.7975843434        5.1038718356       12.6080545413
  C        24.4438300372        6.4502624109       12.3888723840
  C        23.4610343794        6.7318219249       11.4210960040
  C        22.8245018949        5.7033289978       10.7270513623
  C        25.0784100230        7.5463277510       13.1627437278
  C        25.0733814881        7.5385630027       14.5854331055
  C        24.3771431911        6.5431922984       15.3414835424
  C        26.6158179739       17.8640258108        5.7892695576
  C        25.3068722224       17.9073312779        5.0664396528
  C        25.0539589487       18.8992027761        4.1058535466
  C        23.8423374901       18.9213884355        3.4177279121
  C        22.8474601026       17.9538859285        3.6666025102
  C        23.0969816531       16.9846846625        4.6566842483
  C        24.3103991320       16.9578813801        5.3434373678
  C        21.5756690855       17.9408276265        2.8997752615
  C        21.5761187006       17.9213694005        1.4769397788
  C        22.7819629492       17.7991631308        0.7166256465
  C        34.4407465503       17.1955278620        5.9207278139
  C        35.7352398816       17.1424911921        5.1777930808
  C        35.9372560794       16.1747945279        4.1812596448
  C        37.1169577676       16.1613125793        3.4420618367
  C        38.1271554825       17.1140281553        3.6789901068
  C        37.9281543568       18.0611399388        4.7017286273
  C        36.7457084689       18.0801824241        5.4382627305
  C        39.3793983444       17.1228436575        2.8885024078
  C        39.3709987611       17.1309710060        1.4665222386
  C        38.1617897921       17.2494311866        0.7114651840
  C        20.3298962555       17.9401306031        0.7674335615
  C        20.3500711454       17.9426997162        3.5807331072
  C        34.4384790916       17.2387337780       10.1889286404
  C        35.7393707235       17.1401988869       10.9133379094
  C        35.9421856853       16.1653222398       11.9011992010
  C        37.1333485179       16.1353595132       12.6227022427
  C        38.1496132381       17.0795144910       12.3765652931
  C        37.9522262914       18.0273570941       11.3550435278
  C        36.7608811502       18.0620170946       10.6367182290
  C        39.4000537127       17.0970372668       13.1677303553
  C        39.3816530258       17.1185131839       14.5889820939
  C        38.1667922339       17.2423739272       15.3346620316
  C        35.1495660891       26.6415773231       15.2896670393
  C        35.1777988545       26.6569471093       12.4806581287
  C        26.5729227308       17.8292772184       10.3246852547
  C        25.2566420400       17.8756265501       11.0300734767
  C        24.9894559219       18.8866015653       11.9654927301
  C        23.7723124381       18.9129810487       12.6407947770
  C        22.7920859672       17.9288868899       12.4027608316
  C        23.0528888673       16.9432417037       11.4337503967
  C        24.2712922380       16.9144576629       10.7575618585
  C        21.5283633907       17.9123887790       13.1759896908
  C        21.5518427218       17.9062640550       14.5975416579
  C        22.7701068420       17.7925454705       15.3400759548
  C        14.0468525296       17.8293259405       10.2886100673
  C        15.3512564766       17.8877611919       11.0133570742
  C        15.6068479735       18.8914834207       11.9607746484
  C        16.8157347858       18.9137792645       12.6536422080
  C        17.8034858139       17.9352497300       12.4214514471
  C        17.5527097456       16.9559602830       11.4416748368
  C        16.3432608402       16.9290482510       10.7502815107
  C        19.0722574561       17.9197241928       13.1908636556
  C        19.0704386297       17.9189107216       14.6133904449
  C        17.8631678879       17.8202902059       15.3742567850
  C        46.8025831516       17.2164805960       10.1567713689
  C        45.5087665628       17.1476470010       10.8968446211
  C        45.3033851738       16.1669849163       11.8797829212
  C        44.1191125836       16.1417822131       12.6118151425
  C        43.1091948978       17.0968737739       12.3833829394
  C        43.3109558193       18.0558205903       11.3722128655
  C        44.4963010495       18.0851758541       10.6412565327
  C        41.8561660484       17.1040617932       13.1737548330
  C        41.8657864012       17.1126294997       14.5959276316
  C        43.0765254328       17.2151905863       15.3507443589
  C        20.3170018951       17.9313210539       15.3222186180
  C        20.2966509570       17.8991725152       12.5090164549
  C        46.7861119780       17.2331889613        5.8858465134
  C        45.4856541360       17.1314960582        5.1640134616
  C        45.2701029302       16.1371815330        4.1976580195
  C        44.0833804577       16.1118222700        3.4690549824
  C        43.0822643018       17.0778509882        3.6892571940
  C        43.2894174038       18.0435199027        4.6920612035
  C        44.4771406399       18.0751526490        5.4159554579
  C        41.8342476996       17.0978914555        2.8946739082
  C        41.8548296239       17.1083413932        1.4734198532
  C        43.0714087211       17.2105220876        0.7277567304
  C        46.1532841123       26.6372039904        0.7263471057
  C        46.1624838628       26.6560864976        3.5359854355
  C        14.0454780224       17.8319857273        5.7088272040
  C        15.3660707673       17.9073552931        5.0183804156
  C        15.6382706417       18.9235456566        4.0902471500
  C        16.8669056563       18.9621213156        3.4349869038
  C        17.8509354297       17.9837187205        3.6820180653
  C        17.5856210996       16.9966206833        4.6486134478
  C        16.3589879866       16.9574535954        5.3074112693
  C        19.1180903497       17.9605312008        2.9131180125
  C        19.0943901502       17.9384430802        1.4916375934
  C        17.8749228320       17.8289655024        0.7504650051
  C        28.8068150351       14.0827508321       10.3583307648
  C        28.2011769225       12.9112820083       11.0560049061
  C        28.9343074844       12.1641444354       11.9896913948
  C        28.3390621534       11.0910785624       12.6489300904
  C        26.9976632733       10.7394721977       12.3962474487
  C        26.2854574693       11.4675682460       11.4262563235
  C        26.8775984516       12.5420234500       10.7673751980
  C        26.3337677746        9.6572404255       13.1597536140
  C        26.3270915247        9.6799787391       14.5807813328
  C        26.8385316786       10.7891272559       15.3264058772
  C        32.1787361359       21.2406867719       10.1478003138
  C        32.7741640186       22.4063570268       10.8664009765
  C        32.0241082010       23.0914940874       11.8343830822
  C        32.5957082364       24.1308541110       12.5618286279
  C        33.9329235563       24.5128678977       12.3410196256
  C        34.6657313585       23.8469969563       11.3408071890
  C        34.0963675052       22.8019641838       10.6157824824
  C        34.5627654817       25.5878874279       13.1406865294
  C        34.5551138546       25.5592638652       14.5620863535
  C        34.0425727349       24.4457325363       15.3000279764
  C        25.7145502617        8.6035976653       15.2998480987
  C        25.6931963965        8.6087965370       12.4865789917
  C        32.1047596443       21.2304284787        5.8845574043
  C        32.6996871541       22.3792692303        5.1386211304
  C        31.9636251014       23.0460800779        4.1471110371
  C        32.5456221221       24.0736694803        3.4086182534
  C        33.8777599740       24.4656759788        3.6448546229
  C        34.5973501470       23.8125450764        4.6637161487
  C        34.0200051938       22.7785870754        5.3965575538
  C        34.5177071834       25.5468397343        2.8605414974
  C        34.5306969652       25.5389123321        1.4387926742
  C        34.0297517114       24.4368201022        0.6768048052
  C        40.6152114490       17.1035469920        0.7536701484
  C        40.6053573114       17.1223465855        3.5637175928
  C        28.7253566520       14.0975402904        5.7826783565
  C        28.1243946317       12.9418987690        5.0523491087
  C        28.8720859792       12.2283574444        4.1029536395
  C        28.2990166871       11.1614496708        3.4147139913
  C        26.9620891660       10.7823852416        3.6497783489
  C        26.2319433598       11.4821563757        4.6286524799
  C        26.8039759048       12.5480771358        5.3204532891
  C        26.3263847653        9.6862966552        2.8793379493
  C        26.3245258782        9.6950993552        1.4574494802
  C        26.8347433484       10.7976868743        0.7023636012
  C        18.1354277747        3.1810713762       10.3171386669
  C        17.4060913305        4.2782823613       11.0156713639
  C        16.3905539099        3.9999037511       11.9433992237
  C        15.7428331090        5.0398751101       12.6069005998
  C        16.0945521769        6.3836305020       12.3670617945
  C        17.0836810847        6.6531596518       11.4030294130
  C        17.7327731383        5.6158318411       10.7379604187
  C        15.4702550122        7.4913115542       13.1301326589
  C        15.4855193322        7.4905723093       14.5518456317
  C        16.1870931421        6.4969772055       15.3050278203
  C        42.9459317402       31.8595097720       10.0729436981
  C        43.6463328029       30.7718669428       10.8168613023
  C        44.5917824316       31.0931875649       11.8030132775
  C        45.1974622383       30.0876360873       12.5506897622
  C        44.8711105228       28.7345574842       12.3357636440
  C        43.9454038131       28.4202264873       11.3224317535
  C        43.3366098359       29.4253706785       10.5743825180
  C        45.4886617782       27.6552520177       13.1389661969
  C        45.4927946800       27.6808914657       14.5606576150
  C        44.8056824867       28.6889149922       15.3072903372
  C        14.8565674940        8.5630630047       15.2642252512
  C        14.8750471671        8.5631405674       12.4515578377
  C        42.9465257948       31.9616366932        5.8089863966
  C        43.6918059043       30.8855345533        5.0955639863
  C        44.6562198357       31.1914216098        4.1230751146
  C        45.2777419009       30.1718148471        3.4053831901
  C        44.9541517982       28.8214778351        3.6432029637
  C        44.0208946487       28.5238453878        4.6542064550
  C        43.3926324627       29.5406245886        5.3663572692
  C        45.5631319630       27.7240653468        2.8579445681
  C        45.5333390903       27.7173685126        1.4366476637
  C        44.8269643665       28.7075575715        0.6836850679
  C        35.1385160863       26.6303192819        0.7344173298
  C        35.1287351740       26.6046123916        3.5441109134
  C        18.1486010553        3.2470504840        5.7065838562
  C        17.4300272599        4.3438698634        4.9973681228
  C        16.4149355658        4.0525956978        4.0736540185
  C        15.7666226996        5.0832326131        3.3982935381
  C        16.1211704178        6.4284885808        3.6211453652
  C        17.1123869901        6.7118675739        4.5785817167
  C        17.7600669359        5.6829518357        5.2583309987
  C        15.4906902219        7.5241729495        2.8486881450
  C        15.4965479643        7.5074943443        1.4275531683
  C        16.1933181332        6.5058025267        0.6808435465
  H        10.6723015006       12.4654192283        3.9050510874
  H        11.6945791486       10.5506001097        2.6631624360
  H        15.3921051846       11.1693706642        4.7715487094
  H        14.3516206593       13.0721618315        6.0167086629
  H        13.3762302571       11.6311981681        1.2013538418
  H        50.3228302053       22.7484227368        3.9869539414
  H        49.3196870757       24.6228912321        2.6809248410
  H        45.6422021208       24.1611358386        4.8637881062
  H        46.6631629259       22.2901852917        6.1720494960
  H        47.6298330271       23.5758753945        1.2462853160
  H        14.8723015377        8.5884717255        4.6085861679
  H        50.2870941840       22.7026460375       12.0603443457
  H        49.2691503154       24.5755488284       13.3603851673
  H        45.6104004203       24.1090164582       11.1462794446
  H        46.6525127315       22.2536401586        9.8320487301
  H        47.6077859308       23.5518306897       14.7969240673
  H        40.6325144248       17.0694065163       11.4113676208
  H        48.6870928684       14.0950864243        7.8000237501
  H        10.6812819783       12.4664303127       12.0929823712
  H        11.6895659381       10.5244363564       13.2966347691
  H        15.3939927079       11.1597369650       11.2063620325
  H        14.3654872918       13.0882073888        9.9911797666
  H        13.3758921830       11.6221628777       14.7531097971
  H        47.9301471763       14.2187663602        9.7108701543
  H        47.7800015536       14.3737894333        6.4953195592
  H        49.0830735835       18.5519447258       10.8672074475
  H        10.4160258048       14.1343558573        7.9987426343
  H        24.4856491584        3.0271465988        3.9175751602
  H        25.6289909562        4.8831395507        2.6904050704
  H        23.2534296372        7.7547938884        4.8374262861
  H        22.1285719124        5.8890049022        6.0664437035
  H        23.8236893106        5.7882336166        1.2583327880
  H        36.3787311842       32.1858791572        3.9649741212
  H        35.2581075412       30.3590939382        2.6841783315
  H        37.5229830197       27.4391997269        4.8857678705
  H        38.6237081343       29.2786757207        6.1751317877
  H        37.0334073160       29.4477791871        1.2706361558
  H        25.7388052867        8.6133684130        4.6451734809
  H        36.4567748189       32.2416767827       12.1111542478
  H        35.3454115506       30.4226171703       13.4062029047
  H        37.5279583836       27.4878090178       11.1407914443
  H        38.6142854625       29.3185828138        9.8335499416
  H        37.0501764128       29.4678183978       14.8222050006
  H        46.1093494289       26.5875390801       11.3856558124
  H        44.6682128055       35.1161607146        7.8140007187
  H        24.4425168773        3.0364306514       12.0788365448
  H        25.5810080570        4.8734992293       13.3269162812
  H        23.1763676316        7.7668351508       11.2429816273
  H        22.0500049133        5.9178072691        9.9942645934
  H        23.8049544506        5.7884199135       14.8098377559
  H        44.9535300094       34.3900795796        9.6949420476
  H        44.9014827696       34.2067212012        6.4906585422
  H        40.6660987059       33.2091549003       10.8531260642
  H        23.1506225099        1.9578555733        8.0048126643
  H        25.8222060001       19.6447496716        3.9135639860
  H        23.6510911481       19.6974912284        2.6796699894
  H        22.3408160568       16.2286731136        4.8585065180
  H        24.5130976611       16.1960497120        6.0926922198
  H        23.7223117884       17.6794969258        1.2468603827
  H        35.1510955499       15.4466558715        3.9953771328
  H        37.2725279337       15.4030730719        2.6776720869
  H        38.6999423080       18.8046795986        4.8899915179
  H        36.5757262255       18.8262946392        6.2111697610
  H        37.2247275543       17.3765770544        1.2458702454
  H        20.3561094622       17.9817043648        4.6686339116
  H        35.1481830328       15.4493786680       12.1011533256
  H        37.2896649490       15.3757249166       13.3855205356
  H        38.7298267317       18.7627318028       11.1591387075
  H        36.5879604859       18.8122394809        9.8689643652
  H        37.2333332187       17.3639686307       14.7927007259
  H        35.1494753406       26.6828116709       11.3929896199
  H        28.5031663711       21.0806520569        7.9695833190
  H        25.7488986748       19.6447827066       12.1429446797
  H        23.5646570880       19.7010683207       13.3614586406
  H        22.3039583587       16.1770846173       11.2437302129
  H        24.4886666587       16.1420439436       10.0236448016
  H        23.7013976116       17.6678509775       14.7956688449
  H        29.0154471156       21.7194783071        9.7503837116
  H        29.1711941588       21.7391356513        6.6293522254
  H        32.0686463154       18.5690863659       10.9882728539
  H        27.3957109762       19.0709025669        8.0874646521
  H        14.8475846443       19.6497228163       12.1388392911
  H        17.0101047481       19.6983648267       13.3817648408
  H        18.3048829710       16.1926483733       11.2531202579
  H        16.1383218579       16.1596246433       10.0096901824
  H        16.9208442716       17.7042255372       14.8468098805
  H        46.0893621040       15.4383943023       12.0641773321
  H        43.9621189262       15.3743019980       13.3665828102
  H        42.5395482831       18.8012638825       11.1902591059
  H        44.6677591710       18.8407781083        9.8781097504
  H        44.0163715112       17.3289015893       14.8180928174
  H        20.2910541174       17.9265829191       11.4208150847
  H        46.0477620504       15.3978429015        4.0199666030
  H        43.9188795105       15.3391553452        2.7211852996
  H        42.5221032549       18.7944611504        4.8683865956
  H        44.6574913648       18.8392094771        6.1681322645
  H        44.0074841933       17.3198083612        1.2677536291
  H        46.1994161216       26.6826471070        4.6234261810
  H        52.7412552261       21.0626530470        8.1946624686
  H        14.8771205682       19.6767998882        3.8991898377
  H        17.0773394838       19.7530806099        2.7183298434
  H        18.3370164457       16.2351073481        4.8471266871
  H        16.1387544768       16.1824882789        6.0375600197
  H        16.9413544435       17.7196804664        1.2941375399
  H        52.3225650503       21.6733409613        6.2942709978
  H        52.0133950902       21.7022318130        9.4956070464
  H        49.0679947701       18.6079551017        5.2038758986
  H        13.2476617306       19.0161609732        7.9773140766
  H        29.9689305378       12.4373220894       12.1845697657
  H        28.9092283584       10.5109998602       13.3713776445
  H        25.2487258289       11.2063323615       11.2240991305
  H        26.3255594461       13.1255076311       10.0345789788
  H        27.2078597690       11.6549991480       14.7851683851
  H        30.9962650777       22.7844256107       12.0111589579
  H        32.0095218019       24.6615938710       13.3088665286
  H        35.7006634861       24.1334318068       11.1652557662
  H        34.6670653424       22.2615921119        9.8640535604
  H        33.6823199161       23.5791848988       14.7528866118
  H        25.7183568704        8.5921792980       11.3984059036
  H        30.9362302486       22.7410989940        3.9629069494
  H        31.9677757816       24.5919378379        2.6464193017
  H        35.6285830456       24.1045172961        4.8514512913
  H        34.5803288058       22.2519893135        6.1656563226
  H        33.6589278450       23.5634213310        1.2055628930
  H        40.6021140653       17.0871292594        4.6514806342
  H        32.5180327986       14.1440493300        8.2506180278
  H        29.9054123404       12.5183893830        3.9260902262
  H        28.8863820810       10.6033326687        2.6887430210
  H        25.1975779600       11.2018387380        4.8169918733
  H        26.2373942355       13.1034909088        6.0642040337
  H        27.1991617222       11.6708383401        1.2354799936
  H        33.2894659539       14.1874817391        6.4290782133
  H        33.4081284996       14.4070026223        9.6027296179
  H        32.1450158779       18.5582920051        5.1957967016
  H        30.2297402430       14.1912041368        8.0710370822
  H        16.1186113709        2.9633918085       12.1299319001
  H        14.9535186376        4.8204732415       13.3227022987
  H        17.3659340031        7.6860500957       11.2097336225
  H        18.5145962636        5.8185372090       10.0098966008
  H        16.7536998408        5.7396636568       14.7715474033
  H        44.8280388454       32.1402679384       11.9772348707
  H        45.9372711287       30.3413799620       13.3066938443
  H        43.6827993016       27.3781486393       11.1522270797
  H        42.6001147634       29.1900127908        9.8096117503
  H        44.2303129687       29.4366735820       14.7689902239
  H        14.8513330559        8.5464502223       11.3633361823
  H        44.8996402639       32.2341024689        3.9314725454
  H        46.0245191193       30.4130303093        2.6520157957
  H        43.7641489967       27.4841052981        4.8459941427
  H        42.6463409886       29.3178196233        6.1250010069
  H        44.2684428069       29.4704386445        1.2182600353
  H        35.0879468981       26.6162847872        4.6316494287
  H        36.6050664703       35.1340963562        8.1806058889
  H        16.1439193245        3.0130181613        3.9038331340
  H        14.9743840045        4.8563972396        2.6881074479
  H        17.3957810563        7.7473469370        4.7555995398
  H        18.5428255997        5.8934387851        5.9832112846
  H        16.7648017778        5.7555899444        1.2192675590
  H        36.2784747208       34.4826422505        6.2730989509
  H        36.3808534366       34.2092263892        9.4996644046
  H        40.5806497593       33.2029112785        5.1534029850
  H        17.4708130790        1.9476226874        7.9741145323
  H        29.3523966562       19.4955547399       12.5724631473
  H        29.6684637576       19.8408811411        3.6775525274
  H        30.5791080992       15.6844917140        3.8197594660
  H        30.9716988951       15.4664427376       12.3736114872
  H        28.4420297257       18.1912757981       14.7579057750
  H        29.2581703363       15.7155440834       14.7018072051
  H        32.0038956922       19.6503497104        1.6235450042
  H        33.0247362506       18.3308209355       15.4138700906
  H        18.8528381965        0.8689484264       12.3351405762
  H        40.5279009157       35.2291266323        3.9520145163
  H        42.3243692964       34.4192625089        3.5903905499
  H        22.0875609625        0.6918199156       12.3517904007
  H        11.5969618637       18.7126342763       12.3823211271
  H        52.2651247129       18.4314751769        3.6774833181
  H        49.2557553345       16.4770427996        3.5844183989
  H        10.1504453401       15.7983554538       12.2926717242
  H        50.8504255130       17.6923352414        3.9542419047
  H        10.0461632531       17.3947492581       12.0518872546
  H        20.2138831343        0.0020743628       12.0420987888
  H        39.1836132415       36.1244737890        3.6864151887
 Ni        30.9911868664       17.9327860868        3.0789086076
 Ni        31.2422248031       16.6728651449       -0.2495825922
 Ni        30.4327554647       18.8024999499        0.0037213821
 Ni        30.1012458994       17.4227397480       13.1579339887
  O        10.6499597528       14.3651177431        5.4858537927
  O        12.6131976023       14.6574876902        6.5839167525
  O        49.1478811846       16.8459129542        7.9898119360
  O        50.3502487303       20.9358537573        5.6480572089
  O        48.3485549967       20.5932746017        6.6659547414
  O        11.0516699550       17.0538021892        6.5007545906
  O        50.3209663888       20.8816757589       10.4068786532
  O        48.3467065302       20.5867379552        9.3271553587
  O        49.5436591236       18.2484211175       10.0682578417
  O        12.3590803175       18.6246383778        7.9997111330
  O        48.6932101572       14.1486123831        6.7512870388
  O         8.2098715353       14.2104427743        9.3225783572
  O        10.7353762141       14.5067829079       10.6643878376
  O        12.5718435541       14.5828276291        9.3285193261
  O        22.8450091213        2.0436631634        5.4870917411
  O        21.6061934529        3.5929316677        6.5889650224
  O        42.0583233246       34.1375080374        7.9789619788
  O        37.9818907046       33.1382354153        5.5725934490
  O        39.2184559164       31.5764850540        6.6669723169
  O        20.3085129758        1.0398498284        6.5021185921
  O        38.0248215001       33.1861106920       10.4150141116
  O        39.2194173911       31.5839957118        9.3261958298
  O        40.6523064260       33.7694266597       10.0602246859
  O        18.2554297627        1.3763551426        7.9967529604
  O        44.6222165921       35.1005622150        6.7587718163
  O        24.2054111503       -0.0000009276        9.3207942910
  O        22.7531474200        2.0575786522       10.5837026635
  O        21.6246648104        3.5962920945        9.3429579571
  O        27.4864316592       18.7533590795        5.5054126840
  O        26.7638316340       16.9292918907        6.6557417356
  O        30.6669778932       19.4079474587        8.0669194143
  O        33.5859057780       16.2790995610        5.6652434217
  O        34.2762751698       18.1691854281        6.7353120298
  O        29.5748053702       17.0692682841        6.5787076034
  O        33.5543650283       16.3397504380       10.4169196205
  O        34.3016085985       18.2400315766        9.4078012859
  O        31.6548843227       18.3105793643       10.1476600954
  O        30.3230528365       15.1579328682        8.0728042821
  O        28.5542267366       21.0355213231        6.9013393818
  O        28.5138496116       20.9575822566        9.4133273519
  O        27.4590641074       18.6796286776       10.6592511805
  O        26.6938043166       16.9295314128        9.4135502471
  O        13.1485173328       18.6930396653       10.5873151813
  O        13.9194397604       16.9163067781        9.4051481947
  O        50.5960808072       19.3501803377        8.0205089832
  O        47.6826236147       16.3271218853       10.4173714319
  O        46.9506347361       18.1756949361        9.3252354923
  O        11.0697180870       17.0155260638        9.4896159311
  O        47.6758207923       16.3359182423        5.6526925433
  O        46.9264987457       18.2358725716        6.6640475976
  O        49.5686440784       18.3176865290        5.9823187088
  O        10.3186537414       15.1002044499        7.9970880331
  O        52.6707385675       21.0278800706        9.2418056879
  O        12.1468109614       20.8912178703        6.6732906447
  O        13.1078405077       18.6137428667        5.3257443325
  O        13.9571845299       16.9870959087        6.6653824366
  O        29.9994538792       14.4294188080       10.6617644462
  O        28.0774142608       14.6565809090        9.4826831139
  O        32.1383419142       16.8594231759        8.0721628594
  O        30.9638274107       20.9524454576       10.4102079615
  O        32.9458247475       20.6038574523        9.3408064639
  O        29.5628212717       17.0766631035        9.5697326686
  O        30.8748634274       20.9520382071        5.6646684191
  O        32.8794921444       20.5863004523        6.6667431050
  O        31.6848483931       18.2557545749        5.9991100269
  O        28.2827091924       18.6761162209        8.0770099323
  O        32.4940494390       14.2111032051        9.3263873015
  O        32.4010589289       14.2139658098        6.8215889823
  O        29.8780421425       14.5092540292        5.4108267458
  O        28.0436633131       14.5845847289        6.7478506660
  O        17.8892648838        1.9666758056       10.6627889763
  O        18.9562869767        3.5271593121        9.4079446394
  O        39.1686981515       34.1389394717        7.9971828648
  O        43.2802425207       33.0589673095       10.3316941792
  O        42.0345905109       31.5064584469        9.2416209733
  O        20.3177241513        1.0368708936        9.4799953815
  O        43.2760836242       33.1826464904        5.5749055983
  O        42.0053058980       31.5841436941        6.5829769111
  O        40.5790725065       33.7751128784        5.9358629993
  O        22.3673977495        1.3847733790        7.9978758660
  O        36.6727415255       35.0998242671        9.2332503814
  O        16.4455600294        0.0643339326        6.6682982269
  O        17.9365038550        2.0434057555        5.3263896468
  O        18.9191396616        3.5931202088        6.6659227153
  O        29.7421406438       18.9907078260        4.1440847874
  O        29.8706437279       18.9039846975       11.9955496869
  O        31.2584426505       16.3341433445        4.0832109426
  O        31.1741433172       16.3458898439       11.9988375106
  O        30.1656150805       15.8935613636       14.3967486317
  O        32.1582578468       18.1647737449       14.9996998104
  O        31.1069089622       19.2795515568        1.6775222318
  O        29.3074433797       18.5483317225       14.4923625911
  O        39.4567808794       35.2438463377        4.0019575513
  O        19.1407142214        0.0043863687       11.9905878824
  O        41.9695984250       35.1728316937        4.0872011036
  O        21.6911241064       -0.0694172765       11.8958652330
  O        51.3651683680       18.6143525912        4.0054300548
  O        10.7510692292       18.7471047834       11.9049287376
  O        50.0801702724       16.4127878945        4.0917014454
  O         9.5244874452       16.4831548387       11.9911990002
 Zr         9.2972184919       16.0527672042        6.1824869848
 Zr        49.8366380424       16.0068164243        9.7464869912
 Zr        22.0733240268        0.0301517143        6.1890032067
 Zr        42.4609045228       35.1535866736        9.8010617734
 Zr        29.5907388237       19.0967233773        6.2826205984
 Zr        29.5828500527       19.1714907659        9.8504939549
 Zr        11.0383450190       19.0519184724        9.8277852812
 Zr        11.0442832395       19.1547196440        6.2509920693
 Zr        31.3432621082       16.1016322297        9.8472777936
 Zr        31.4017233783       16.0237904937        6.2771691980
 Zr        18.6011557291       -0.0010590956        9.7631792202
 Zr        18.5065293142       -0.0073766852        6.2138150128
 Zr        12.3026757118       16.3236754374        7.9903348260
 Zr        48.6165959980       18.8329787553        8.0104561359
 Zr        20.3154200188        2.4738685117        7.9904540099
 Zr        40.6437885367       32.6873296681        7.9782832827
 Zr        28.3372594506       16.3489359594        8.0751956295
 Zr        32.6292040287       18.8446143624        8.0556675284
