     573
 i =      122, E =     -4762.7483859680
  C        11.8586182847       14.0535643730        5.7415637116
  C        12.4561580647       12.8904925278        5.0233171852
  C        11.7045600187       12.1717996106        4.0814289520
  C        12.2809364577       11.1095965837        3.3890501935
  C        13.6214133733       10.7396243150        3.6170094877
  C        14.3544576223       11.4429214387        4.5907658451
  C        13.7815539339       12.5078758142        5.2822964281
  C        14.2610513935        9.6490499993        2.8435930324
  C        14.2564927632        9.6570241354        1.4218891517
  C        13.7431867956       10.7590813035        0.6679768113
  C        49.1265835481       21.2332985978        5.8797880074
  C        48.5497447364       22.4011569364        5.1526098244
  C        49.2998532111       23.0686825512        4.1718243480
  C        48.7328884584       24.1077700432        3.4385907724
  C        47.4022565437       24.5091601196        3.6670572645
  C        46.6711498431       23.8599990129        4.6802510386
  C        47.2336433428       22.8151200353        5.4096188811
  C        46.7720863500       25.5869006865        2.8697868498
  C        46.7610729282       25.5573026932        1.4480287448
  C        47.2607884862       24.4420764863        0.7045927613
  C        14.8606007402        8.5707829339        0.7086190078
  C        14.8918717997        8.5971122281        3.5202196697
  C        49.1130333589       21.2033967610       10.1453659373
  C        48.5275619696       22.3646116167       10.8727252551
  C        49.2669098265       23.0256150963       11.8653460255
  C        48.6905241525       24.0601219804       12.5968276322
  C        47.3599798434       24.4565600921       12.3588193593
  C        46.6393564659       23.8112473790       11.3357243202
  C        47.2129619337       22.7753565257       10.6039471490
  C        46.7216237249       25.5316504572       13.1497646265
  C        46.7333257232       25.5280782027       14.5714611158
  C        47.2485307958       24.4287531384       15.3278327384
  C        40.6335618182       17.1008499742       15.3229043939
  C        40.6550552253       17.1438414219       12.5139529041
  C        11.8828091294       14.0865432641       10.2854178425
  C        12.4721953781       12.9106628451       10.9896750353
  C        11.7146836950       12.1775358997       11.9158198375
  C        12.2812638917       11.0950800532       12.5842724146
  C        13.6200454302       10.7213046803       12.3523883160
  C        14.3579774571       11.4367272891       11.3914534189
  C        13.7925419968       12.5178743020       10.7187311368
  C        14.2537511069        9.6246295249       13.1228137491
  C        14.2526154735        9.6446527030       14.5446523335
  C        13.7426165824       10.7535449430       15.2917227420
  C        22.5102744923        3.2452766300        5.7531743261
  C        23.2193380084        4.3543882266        5.0541530469
  C        24.2194369667        4.0826511182        4.1089964297
  C        24.8390172789        5.1278594515        3.4285799145
  C        24.4734879347        6.4667142003        3.6727408818
  C        23.5017629564        6.7299913860        4.6551789683
  C        22.8780886035        5.6868719905        5.3342642013
  C        25.0704933778        7.5785223078        2.8982747225
  C        25.0486135242        7.5686274229        1.4766666745
  C        24.3551819081        6.5637180888        0.7298373214
  C        38.3050351212       31.9313661635        5.8488643884
  C        37.5803088576       30.8415710859        5.1368715511
  C        36.6183067301       31.1442130306        4.1615499865
  C        36.0058173356       30.1228247551        3.4414892353
  C        36.3419552459       28.7753077648        3.6759739710
  C        37.2756180038       28.4799249061        4.6867171082
  C        37.8916074070       29.4999899659        5.4060010805
  C        35.7398200857       27.6840077021        2.8803532613
  C        35.7564770737       27.7046030302        1.4592645728
  C        36.4587669572       28.7080020854        0.7199839605
  C        25.6681596571        8.6405901974        0.7570590408
  C        25.6547405280        8.6602370028        3.5698869451
  C        38.3279322298       31.9629930197       10.1550507471
  C        37.6025948073       30.8914296745       10.8953525543
  C        36.6724536869       31.2036286596       11.8985563992
  C        36.0580166401       30.1874256148       12.6273404335
  C        36.3597991896       28.8340952296       12.3761823021
  C        37.2674069588       28.5317227274       11.3427240309
  C        37.8839667002       29.5445789542       10.6151122871
  C        35.7487300925       27.7378466245       13.1614828650
  C        35.7613673903       27.7319103791       14.5831598896
  C        36.4610287694       28.7208437335       15.3434101897
  C        46.1355595893       26.6208742064       15.2815442888
  C        46.0877951979       26.5800276722       12.4736445663
  C        22.4612343403        3.2571314721       10.2591121921
  C        23.1544118627        4.3669963098       10.9828255800
  C        24.1547271843        4.0831683508       11.9264113033
  C        24.7809053160        5.1145681344       12.6228630873
  C        24.4276969674        6.4605281657       12.3987641676
  C        23.4506633772        6.7375045978       11.4235252347
  C        22.8197026538        5.7064371116       10.7278298692
  C        25.0550644251        7.5611221556       13.1739630302
  C        25.0414136847        7.5588321530       14.5970305596
  C        24.3490371929        6.5607643252       15.3529396602
  C        26.6284458619       17.8580347806        5.7421569228
  C        25.3252493274       17.9101982859        5.0137004465
  C        25.0467863749       18.9205358454        4.0801712661
  C        23.8270871020       18.9425319223        3.4063019039
  C        22.8484758624       17.9566262924        3.6454256851
  C        23.1222219663       16.9677942626        4.6085429619
  C        24.3429218338       16.9419959418        5.2801256051
  C        21.5716371853       17.9421681524        2.8884790837
  C        21.5726760310       17.9176064308        1.4667994357
  C        22.7788102185       17.7888915496        0.7082560255
  C        34.4889518467       17.2260006108        5.9913054935
  C        35.7681563695       17.1662996911        5.2308749958
  C        35.9265783181       16.2200681809        4.2063522595
  C        37.0938386015       16.1968622336        3.4482477724
  C        38.1308708109       17.1176759571        3.6938007843
  C        37.9703314344       18.0473197709        4.7399566678
  C        36.8010645968       18.0780131851        5.4949771921
  C        39.3783798869       17.1129973982        2.8975981337
  C        39.3735741744       17.1246950049        1.4752764663
  C        38.1679629058       17.2523799824        0.7157804480
  C        20.3265562712       17.9351926716        0.7588685860
  C        20.3483758089       17.9444288036        3.5728786948
  C        34.5002225239       17.2158964859       10.1510797672
  C        35.7953956767       17.1473326957       10.8814408955
  C        36.0021331976       16.1636858798       11.8601149145
  C        37.1806043511       16.1488723867       12.5997819846
  C        38.1807399795       17.1144837590       12.3769255311
  C        37.9803465893       18.0738155962       11.3668192385
  C        36.7981967378       18.0964259399       10.6326018097
  C        39.4237970424       17.1296003382       13.1773723880
  C        39.3973474269       17.1327396167       14.5984415893
  C        38.1789529812       17.2530170127       15.3386101242
  C        35.1292565099       26.6548125183       15.2887700462
  C        35.1554806722       26.6679849289       12.4804750064
  C        26.5729966082       17.8282873628       10.3273155149
  C        25.2580131345       17.8750507551       11.0306207545
  C        24.9992110085       18.8728277151       11.9823069675
  C        23.7796061649       18.9000664460       12.6524968142
  C        22.7915384153       17.9282540699       12.3968762000
  C        23.0459073335       16.9546950351       11.4139305590
  C        24.2653509312       16.9262836120       10.7403762610
  C        21.5274610434       17.9090423907       13.1686151646
  C        21.5499698199       17.8973713290       14.5900251107
  C        22.7678232489       17.7778126638       15.3321166442
  C        14.0458278619       17.8295463569       10.2872199587
  C        15.3509312793       17.8883717863       11.0104194715
  C        15.6077979840       18.8935517096       11.9555968785
  C        16.8173401595       18.9157057288       12.6471156898
  C        17.8030998684       17.9355828565       12.4146048891
  C        17.5512510041       16.9548632851       11.4368679726
  C        16.3410809763       16.9280814216       10.7471638376
  C        19.0715319134       17.9183723497       13.1834132514
  C        19.0686963337       17.9144624242       14.6056689499
  C        17.8612383863       17.8162023504       15.3665300157
  C        46.8055073986       17.2181477237       10.1588396155
  C        45.5177208869       17.1543844615       10.9055779105
  C        45.3143513140       16.1722326548       11.8873244748
  C        44.1346700643       16.1510424009       12.6259243922
  C        43.1294719675       17.1125536600       12.4050483763
  C        43.3302192233       18.0744652919       11.3965516088
  C        44.5102369344       18.0991770249       10.6582322945
  C        41.8775744551       17.1206703160       13.1941717771
  C        41.8814883266       17.1108926054       14.6157989393
  C        43.0902851333       17.1958806201       15.3753706960
  C        20.3148267760       17.9245099749       15.3142120740
  C        20.2957374720       17.8996460320       12.5015964090
  C        46.7849797656       17.2292445179        5.8909170470
  C        45.4815939566       17.1177680067        5.1789328687
  C        45.2642335223       16.1128972860        4.2239529260
  C        44.0765411426       16.0805053011        3.4978669879
  C        43.0773575749       17.0499987050        3.7100644431
  C        43.2844320958       18.0236511849        4.7050217518
  C        44.4731253517       18.0624025037        5.4263946258
  C        41.8327930896       17.0707311354        2.9115264754
  C        41.8584860116       17.0844760448        1.4909841859
  C        43.0792273986       17.1808651367        0.7518662090
  C        46.1533042135       26.6373248638        0.7262935237
  C        46.1622526594       26.6560566374        3.5359262406
  C        14.0445429808       17.8314942853        5.7081540416
  C        15.3649089783       17.9060757182        5.0154070722
  C        15.6361469081       18.9221517111        4.0869196176
  C        16.8639924307       18.9608565750        3.4298739337
  C        17.8484929078       17.9827483924        3.6758547832
  C        17.5838967815       16.9950693222        4.6420942581
  C        16.3579170346       16.9558236608        5.3024602473
  C        19.1155021643       17.9602126544        2.9060690335
  C        19.0916172977       17.9354099363        1.4843411960
  C        17.8721999650       17.8255178916        0.7429313856
  C        28.8110683470       14.0958274047       10.3921937632
  C        28.1933025819       12.9269551851       11.0839632054
  C        28.9072394392       12.1995509427       12.0481539722
  C        28.3050603253       11.1263618028       12.7004676324
  C        26.9752642815       10.7565673835       12.4131511048
  C        26.2836560964       11.4656784736       11.4145889356
  C        26.8829813408       12.5391715660       10.7608427121
  C        26.3027452897        9.6777115203       13.1727925316
  C        26.2805287119        9.7091856478       14.5938613352
  C        26.7747546815       10.8263989952       15.3394556354
  C        32.1782005215       21.2475149646       10.1486451359
  C        32.7676535047       22.4144847932       10.8652375662
  C        32.0128162746       23.0917127889       11.8353454258
  C        32.5776756027       24.1341369019       12.5630616816
  C        33.9121422855       24.5248579964       12.3416914166
  C        34.6495995248       23.8653956811       11.3404790104
  C        34.0872896192       22.8181231542       10.6139667971
  C        34.5379550727       25.6011082995       13.1419726784
  C        34.5290464877       25.5738331703       14.5636100139
  C        34.0106941465       24.4637492878       15.3032376938
  C        25.6706114147        8.6311300764       15.3120832652
  C        25.6723839404        8.6231156984       12.4987481640
  C        32.1170404398       21.2386074609        5.8856706303
  C        32.7082572121       22.3892136821        5.1443408572
  C        31.9523443400       23.1112409786        4.2072173970
  C        32.5367251966       24.1328584031        3.4636196286
  C        33.8913647630       24.4697984521        3.6466352975
  C        34.6330063526       23.7667283289        4.6146160404
  C        34.0535638909       22.7344768963        5.3481490750
  C        34.5273577205       25.5519641590        2.8603835544
  C        34.5199874599       25.5507297509        1.4391911593
  C        34.0030080297       24.4542837238        0.6802494022
  C        40.6211382744       17.0918367872        0.7674261542
  C        40.6027049650       17.1013114217        3.5758447171
  C        28.7110582009       14.0973675517        5.8189761153
  C        28.0892834298       12.9575170829        5.0827447020
  C        28.8238775628       12.2467311914        4.1204524116
  C        28.2381231689       11.1934988244        3.4233900629
  C        26.9010248486       10.8193995960        3.6646445684
  C        26.1824625554       11.5158518824        4.6547483277
  C        26.7661701152       12.5727303039        5.3518624406
  C        26.2624203891        9.7254343866        2.8928904895
  C        26.2619093272        9.7334779138        1.4706910967
  C        26.7640401871       10.8394690526        0.7154981669
  C        18.1353856378        3.1811124441       10.3172309539
  C        17.4061629480        4.2783282590       11.0158409471
  C        16.3905258658        3.9999989997       11.9434617633
  C        15.7428513587        5.0400043390       12.6069466105
  C        16.0946849307        6.3837225738       12.3671106240
  C        17.0839451547        6.6532032685       11.4032116318
  C        17.7330106381        5.6158419589       10.7381844657
  C        15.4703931054        7.4914259526       13.1301325375
  C        15.4858500423        7.4908013342       14.5518315422
  C        16.1876353779        6.4973319175       15.3049804387
  C        42.9460916942       31.8595440967       10.0729965676
  C        43.6464929102       30.7719423551       10.8168287642
  C        44.5920369618       31.0932593009       11.8029116215
  C        45.1977383556       30.0876887640       12.5505271010
  C        44.8713089419       28.7346105557       12.3356702697
  C        43.9455390544       28.4202860830       11.3223903587
  C        43.3367363113       29.4254353987       10.5743684591
  C        45.4888071233       27.6553020287       13.1388845434
  C        45.4930408658       27.6810679653       14.5605696080
  C        44.8061022020       28.6892262494       15.3071735678
  C        14.8568102527        8.5632440558       15.2641925142
  C        14.8749410981        8.5630852099       12.4515298613
  C        42.9465057960       31.9615623412        5.8090029662
  C        43.6917663528       30.8855242208        5.0956123331
  C        44.6560315934       31.1914773982        4.1229816423
  C        45.2775987833       30.1719149591        3.4052923228
  C        44.9541446325       28.8215419259        3.6431466422
  C        44.0210727202       28.5238410461        4.6543177720
  C        43.3927966729       29.5405775327        5.3665028416
  C        45.5631164159       27.7241586066        2.8578793042
  C        45.5334938590       27.7175726532        1.4365790769
  C        44.8273426106       28.7078785891        0.6835658160
  C        35.1262257835       26.6418231331        0.7332499602
  C        35.1480438621       26.6031659760        3.5435415056
  C        18.1486345362        3.2471447705        5.7066487366
  C        17.4301671644        4.3439736463        4.9972827215
  C        16.4151369256        4.0527294487        4.0735094071
  C        15.7668875722        5.0833809973        3.3981084139
  C        16.1213982138        6.4286226298        3.6210395308
  C        17.1125945082        6.7119636468        4.5785004207
  C        17.7602125878        5.6830373609        5.2582822124
  C        15.4909169417        7.5243186790        2.8486131039
  C        15.4969356700        7.5077408389        1.4274870469
  C        16.1938924897        6.5061697943        0.6807922142
  H        10.6724902607       12.4660908447        3.9042840720
  H        11.6946611425       10.5512595918        2.6623855489
  H        15.3913861567       11.1680808605        4.7727125759
  H        14.3508271198       13.0709044270        6.0180284515
  H        13.3759331736       11.6310954280        1.2013007376
  H        50.3226208272       22.7487592128        3.9872384597
  H        49.3193574192       24.6231672850        2.6810928064
  H        45.6414927331       24.1603946438        4.8631121857
  H        46.6624823197       22.2895506958        6.1713796927
  H        47.6289622756       23.5755672225        1.2463191857
  H        14.8720343969        8.5882723363        4.6085227207
  H        50.2870570993       22.7029659857       12.0600381913
  H        49.2689294685       24.5757950110       13.3601722342
  H        45.6097509032       24.1080295251       11.1470365769
  H        46.6519488754       22.2527764454        9.8328011663
  H        47.6069447440       23.5514802065       14.7969356328
  H        40.6617763553       17.1176028039       11.4260140880
  H        48.6870472647       14.0946903467        7.8000163351
  H        10.6812230057       12.4666606962       12.0932355600
  H        11.6894415373       10.5247216006       13.2969753464
  H        15.3933707623       11.1587429030       11.2054544805
  H        14.3647648611       13.0871674281        9.9900514235
  H        13.3755409663       11.6220398745       14.7530617397
  H        47.9299958813       14.2180710364        9.7104069096
  H        47.7799873519       14.3732477308        6.4951607892
  H        49.0831393857       18.5520281597       10.8671290234
  H        10.4155837740       14.1342938695        7.9986279789
  H        24.4890436748        3.0463195018        3.9177503729
  H        25.6150109635        4.9172235005        2.6958557578
  H        23.2120476412        7.7604719602        4.8500396446
  H        22.1055580061        5.8804226095        6.0743693702
  H        23.7958881025        5.8051098959        1.2695525385
  H        36.3757057198       32.1868900586        3.9706428300
  H        35.2583220168       30.3589504206        2.6873638751
  H        37.5423689530       27.4416653367        4.8728996381
  H        38.6380303077       29.2821154011        6.1660939891
  H        37.0289270234       29.4553144689        1.2640855103
  H        25.6848472457        8.6453677632        4.6578964054
  H        36.4523416375       32.2486576924       12.1045483326
  H        35.3315218625       30.4345162106       13.3983023566
  H        37.5120436013       27.4906225226       11.1426915088
  H        38.6075454332       29.3167041882        9.8362179780
  H        37.0340254520       29.4777345278       14.8155721544
  H        46.1091103081       26.5872602997       11.3856060082
  H        44.6683880531       35.1162270333        7.8138615449
  H        24.4326867991        3.0453646727       12.0960449786
  H        25.5600049078        4.8860686079       13.3470225704
  H        23.1655954280        7.7715702453       11.2405723145
  H        22.0496787888        5.9188700175        9.9897456967
  H        23.7842840912        5.8005286001       14.8211115874
  H        44.9541635058       34.3906894981        9.6953748585
  H        44.9017783952       34.2069069810        6.4904600415
  H        40.6662600516       33.2092907685       10.8532917557
  H        23.1504273876        1.9582341543        8.0055378130
  H        25.7898832064       19.6941843572        3.9018542445
  H        23.6158999889       19.7322680307        2.6884310189
  H        22.3784251753       16.1972197288        4.8008619005
  H        24.5644271271       16.1670555633        6.0101744892
  H        23.7186268345       17.6664755279        1.2386275733
  H        35.1141129274       15.5243859380        4.0081006437
  H        37.2163325540       15.4553966790        2.6619241219
  H        38.7626913987       18.7677902144        4.9318061672
  H        36.6610187840       18.8110988084        6.2860190979
  H        37.2274205497       17.3815062596        1.2437993268
  H        20.3557723265       17.9846423682        4.6607339061
  H        35.2192424855       15.4309841512       12.0401289071
  H        37.3397923917       15.3856153014       13.3582651250
  H        38.7474697585       18.8253345950       11.1922864966
  H        36.6201906889       18.8552346718        9.8743784344
  H        37.2470530150       17.3817314776       14.7951004642
  H        35.1282211762       26.6915774312       11.3927334587
  H        28.5069413649       21.0750124635        8.0079884875
  H        25.7677183001       19.6161116253       12.1817186518
  H        23.5780325124       19.6781291199       13.3855256392
  H        22.2916829320       16.1970085696       11.2114998570
  H        24.4779867993       16.1627054088        9.9960299710
  H        23.6991955145       17.6474667140       14.7890292077
  H        28.9935492545       21.7213964275        9.7638745186
  H        29.1621918951       21.7428613439        6.6447554176
  H        32.1332393683       18.5262744259       11.0078090532
  H        27.4057647891       19.0784528371        8.0871852230
  H        14.8489443077       19.6523443842       12.1330392633
  H        17.0136354163       19.7008181790       13.3741512139
  H        18.3026320170       16.1905424333       11.2492991671
  H        16.1337380205       16.1578676386       10.0080940357
  H        16.9190055020       17.7008916713       14.8386558811
  H        46.0977433532       15.4391154529       12.0642277250
  H        43.9763980769       15.3814568423       13.3782043949
  H        42.5613684669       18.8243244797       11.2223433076
  H        44.6818936406       18.8555549287        9.8959855841
  H        44.0330608562       17.3064513133       14.8473321544
  H        20.2897948372       17.9313011546       11.4135258502
  H        46.0421672012       15.3726702677        4.0516108543
  H        43.9102425917       15.3015261518        2.7569841170
  H        42.5168675641       18.7757729788        4.8749188933
  H        44.6550065659       18.8331888046        6.1712753403
  H        44.0136649987       17.2783309198        1.2968050100
  H        46.1990453750       26.6825050264        4.6233752322
  H        52.7408576016       21.0624779970        8.1946330986
  H        14.8746856478       19.6753679243        3.8968453633
  H        17.0731435574       19.7519301590        2.7129462985
  H        18.3350838816       16.2330202575        4.8393644570
  H        16.1383546950       16.1804992685        6.0324776658
  H        16.9383720836       17.7172258509        1.2864021833
  H        52.3214448252       21.6729979688        6.2947000327
  H        52.0124513649       21.7014857183        9.4955119907
  H        49.0666312647       18.6072986675        5.2046042153
  H        13.2470963038       19.0167119270        7.9769518670
  H        29.9322745285       12.4882237102       12.2711102636
  H        28.8610076469       10.5610985696       13.4453254378
  H        25.2559992390       11.1909606536       11.1857095178
  H        26.3459415603       13.1075881056       10.0055459686
  H        27.1378727124       11.6955814484       14.7994057830
  H        30.9884549163       22.7742800284       12.0150601091
  H        31.9885334333       24.6590436423       13.3117781816
  H        35.6830499403       24.1579189231       11.1665010770
  H        34.6620952408       22.2821667143        9.8622798568
  H        33.6437602869       23.5977261481       14.7594449881
  H        25.7087247329        8.6009173072       11.4109713339
  H        30.9024130783       22.8650904822        4.0692939927
  H        31.9454907008       24.6895112434        2.7397433223
  H        35.6815985191       24.0178555835        4.7604194452
  H        34.6308661046       22.1666034062        6.0741545295
  H        33.6284180394       23.5820523020        1.2088521501
  H        40.5959320312       17.0634813735        4.6634365677
  H        32.5107743075       14.1381562277        8.2601590581
  H        29.8583389804       12.5263349164        3.9363505294
  H        28.8170075647       10.6413199810        2.6862548167
  H        25.1481535830       11.2396833345        4.8494820717
  H        26.2068330348       13.1245164572        6.1037784647
  H        27.1180507934       11.7185826716        1.2461921213
  H        33.2979541310       14.2034985642        6.4438228232
  H        33.4069489643       14.4124304062        9.5996914746
  H        32.1146814419       18.5345433682        5.0608083966
  H        30.2359001377       14.1954559376        8.0756822308
  H        16.1185330725        2.9634975906       12.1299654947
  H        14.9534714409        4.8206906008       13.3227029772
  H        17.3662922105        7.6860811558       11.2099971713
  H        18.5149996975        5.8184535779       10.0102772754
  H        16.7543260888        5.7400984918       14.7714718632
  H        44.8283534674       32.1403253613       11.9771384151
  H        45.9376139141       30.3414146820       13.3064700696
  H        43.6828720618       27.3782148329       11.1522326107
  H        42.6002014294       29.1900458795        9.8096465781
  H        44.2308500529       29.4370664243       14.7688670808
  H        14.8510173930        8.5462458824       11.3633145980
  H        44.8993649470       32.2341658026        3.9313177128
  H        46.0242812215       30.4131766375        2.6518466730
  H        43.7644716209       27.4840741394        4.8461735669
  H        42.6467233543       29.3176810115        6.1253318174
  H        44.2688830910       29.4708375003        1.2180881417
  H        35.1220982975       26.6076649135        4.6315819012
  H        36.6052103880       35.1342123761        8.1805542960
  H        16.1441587389        3.0131489848        3.9036533330
  H        14.9746884148        4.8565849417        2.6878691365
  H        17.3959501678        7.7474411275        4.7555616970
  H        18.5429253896        5.8934578208        5.9832303769
  H        16.7654869340        5.7560476668        1.2192232755
  H        36.2788847543       34.4825035945        6.2732091253
  H        36.3814044642       34.2090431460        9.4994734612
  H        40.5817373224       33.2035927370        5.1536706668
  H        17.4708356397        1.9477899564        7.9742864589
  H        28.9915442799       19.1387411526       12.4900101426
  H        29.8553920523       20.4889922672        3.9488002429
  H        31.0505245997       14.9970795843        3.9919034002
  H        31.4477439304       15.5817669839       12.5192771216
  H        28.2409787179       17.5640721431       14.6680152098
  H        29.4191202323       15.0262888725       13.9767552826
  H        32.1390920557       16.2406615527        0.8834302746
  H        28.8074361418       17.5665241047        1.4796127934
  H        31.2818104776       19.5196590559       13.6923601567
  H        18.8537997224        0.8692910890       12.3352507196
  H        40.5279672703       35.2289518856        3.9519312289
  H        42.3252732333       34.4199783220        3.5899936606
  H        22.0879261653        0.6918998993       12.3519090704
  H        11.5970087733       18.7127728970       12.3823515564
  H        52.2646513629       18.4307014011        3.6774073452
  H        49.2551320198       16.4769374100        3.5846005077
  H        10.1493208723       15.7982051549       12.2934070209
  H        50.8495247046       17.6923526732        3.9543443097
  H        10.0456220987       17.3943518208       12.0520700582
  H        20.2150335156        0.0023769405       12.0419960984
  H        39.1838420076       36.1245612854        3.6865139096
 Ni        30.7282700815       16.8206812268        2.7468842240
 Ni        30.0561670352       16.1824096940       -0.0855972878
 Ni        30.4381162372       18.4552750347       -0.4126795841
 Ni        30.1404179884       17.3022318755       13.2367154028
  O        10.6499708028       14.3650694686        5.4857786959
  O        12.6132095930       14.6575075548        6.5838687024
  O        49.1479655333       16.8459809585        7.9897457230
  O        50.3501590764       20.9362149415        5.6482075089
  O        48.3485076401       20.5933489898        6.6659708841
  O        11.0514584514       17.0539602817        6.5005759323
  O        50.3209610434       20.8817430029       10.4068386173
  O        48.3467217079       20.5868056367        9.3271186612
  O        49.5440048808       18.2485043363       10.0683135191
  O        12.3588686617       18.6245292677        7.9996577250
  O        48.6932772976       14.1484607410        6.7513138695
  O         8.2099026145       14.2102339908        9.3224805185
  O        10.7353788961       14.5067016152       10.6643922892
  O        12.5718273260       14.5828067299        9.3284915777
  O        22.8447380105        2.0446013621        5.4870565914
  O        21.6045082309        3.5918413828        6.5910533443
  O        42.0584501696       34.1377076694        7.9791891458
  O        37.9821199630       33.1391210134        5.5729015340
  O        39.2189428040       31.5770087252        6.6674931684
  O        20.3086210721        1.0399937307        6.5022583901
  O        38.0250018289       33.1867233370       10.4148130450
  O        39.2190564879       31.5837806843        9.3266183002
  O        40.6524551824       33.7695845854       10.0604032377
  O        18.2553844876        1.3764390286        7.9968371319
  O        44.6221865029       35.1006087126        6.7587129064
  O        24.2054377393        0.0000589982        9.3207974448
  O        22.7533318463        2.0587663680       10.5845194135
  O        21.6249077890        3.5967125389        9.3437637940
  O        27.5500914010       18.6942345937        5.4096103778
  O        26.7327946720       16.9927119466        6.6667961958
  O        30.6755994339       19.4067944026        8.0687458079
  O        33.6586763209       16.2771541652        5.8226472263
  O        34.3041777353       18.2502545530        6.7438529803
  O        29.5754906908       17.0666955583        6.5778684042
  O        33.6615619270       16.2700068581       10.3311496777
  O        34.3105897632       18.2431250622        9.4092948656
  O        31.7121256542       18.3138429876       10.1566460900
  O        30.3272275309       15.1625073591        8.0823657372
  O        28.5532819288       21.0308375208        6.9112948504
  O        28.5145292307       20.9542141326        9.4067753248
  O        27.4600611049       18.6793931163       10.6597641176
  O        26.6953702343       16.9301775370        9.4136368465
  O        13.1483119769       18.6931683801       10.5871282811
  O        13.9190976331       16.9160784272        9.4045728005
  O        50.5958736638       19.3502759602        8.0205119139
  O        47.6842290415       16.3265056124       10.4166910089
  O        46.9518740818       18.1757113007        9.3248467649
  O        11.0696286269       17.0155098566        9.4897273349
  O        47.6768924920       16.3351381252        5.6537277380
  O        46.9276083321       18.2354750677        6.6643642327
  O        49.5688794858       18.3177493390        5.9823125076
  O        10.3185487237       15.1001740932        7.9970602619
  O        52.6707225425       21.0279316740        9.2418410441
  O        12.1468190449       20.8912199484        6.6731844751
  O        13.1076628670       18.6139066548        5.3255510802
  O        13.9570072738       16.9871585002        6.6649365470
  O        29.9939242913       14.4446535332       10.7293616210
  O        28.0901599459       14.6555940863        9.4919123307
  O        32.1046804081       16.9164225798        8.0714669652
  O        30.9662266413       20.9534983013       10.4085074783
  O        32.9476042722       20.6104603711        9.3409535885
  O        29.5742301818       17.0785062975        9.5778691486
  O        30.8801278539       20.9547260717        5.6621611543
  O        32.8771386083       20.5882726660        6.6657922366
  O        31.6056724828       18.2431784197        5.8345793875
  O        28.2908320686       18.6786339589        8.0789087363
  O        32.4902497987       14.2125065548        9.3301358666
  O        32.4038101225       14.2114499104        6.8260801606
  O        29.9014824581       14.4349058168        5.5007604309
  O        28.0068716266       14.6488297054        6.7396120124
  O        17.8892559049        1.9667244309       10.6628531389
  O        18.9562633925        3.5272256627        9.4080632127
  O        39.1687575702       34.1389707843        7.9973312535
  O        43.2802510909       33.0590537737       10.3317222779
  O        42.0346050581       31.5065128747        9.2417068111
  O        20.3179291813        1.0369171966        9.4803253225
  O        43.2759893636       33.1826041426        5.5749189194
  O        42.0052385036       31.5841116303        6.5830272998
  O        40.5793544461       33.7754842703        5.9363633841
  O        22.3674884708        1.3847495375        7.9980293902
  O        36.6727352879       35.0998622472        9.2332446804
  O        16.4455784644        0.0644385416        6.6683496005
  O        17.9365392853        2.0435014494        5.3263870946
  O        18.9190238082        3.5931696107        6.6660051816
  O        29.5606680338       19.5592180951        4.0061877844
  O        29.8255106695       18.9652895030       12.0032062272
  O        31.5590521766       15.8299330687        4.0933885545
  O        31.3873204676       16.4123185174       12.0050098422
  O        32.4916879930       16.8571648381        1.5809491228
  O        29.7504781525       17.5137726556        1.2504335017
  O        30.2494754493       15.4692912518       14.2404971957
  O        31.6750248847       18.9771024792       14.4072820054
  O        28.8085140720       18.2368807811       14.2469099201
  O        39.4568290826       35.2438500192        4.0019731445
  O        19.1416155900        0.0047779671       11.9905604105
  O        41.9695913869       35.1727729685        4.0873150363
  O        21.6913171555       -0.0692705307       11.8959964211
  O        51.3649293731       18.6142536377        4.0054252896
  O        10.7511807387       18.7472694203       11.9049351329
  O        50.0797271186       16.4128425803        4.0916792745
  O         9.5238859560       16.4831475172       11.9912833384
 Zr         9.2959234050       16.0527209555        6.1823432103
 Zr        49.8354745640       16.0066178071        9.7465190161
 Zr        22.0734732389        0.0302387624        6.1890848986
 Zr        42.4613409543       35.1538474765        9.8012412450
 Zr        29.6201152111       19.0946659444        6.3598200515
 Zr        29.5927986566       19.1672175421        9.9112365096
 Zr        11.0372091682       19.0519256871        9.8275451242
 Zr        11.0429915049       19.1548462187        6.2513275736
 Zr        31.3643264483       16.1063016355        9.8868650054
 Zr        31.4182675586       16.0057986881        6.2902593146
 Zr        18.6013855482       -0.0008788298        9.7633142422
 Zr        18.5068427303       -0.0069170801        6.2140634788
 Zr        12.3007806099       16.3235054372        7.9901948597
 Zr        48.6153204472       18.8327547014        8.0102611957
 Zr        20.3154432575        2.4738522020        7.9911825068
 Zr        40.6443208720       32.6875505233        7.9786996892
 Zr        28.3453745629       16.3486888175        8.0942623576
 Zr        32.6665382429       18.8516247453        8.0805075568
  H        29.5150159985       16.7808582950        3.5242403839
  H        28.6043859025       19.5102361547        3.8071163552
  H        32.5184189743       17.7041831710        1.0841096451
