     573
 i =      202, E =     -4762.7889201991
  C        11.8586130053       14.0535607616        5.7415640677
  C        12.4561681387       12.8905489114        5.0232627043
  C        11.7045305889       12.1717625495        4.0814746907
  C        12.2809044699       11.1095619499        3.3890931784
  C        13.6214034710       10.7396401852        3.6170092712
  C        14.3544893132       11.4429959726        4.5906916867
  C        13.7815723809       12.5079411534        5.2822248917
  C        14.2610417367        9.6490689559        2.8435895151
  C        14.2564383355        9.6570170358        1.4218878381
  C        13.7431020667       10.7590566758        0.6679742372
  C        49.1265769544       21.2332934473        5.8797983042
  C        48.5496879696       22.4011402256        5.1525954006
  C        49.2997599048       23.0686001685        4.1717463802
  C        48.7327631665       24.1076671328        3.4385046515
  C        47.4021595966       24.5090900743        3.6670489517
  C        46.6711151915       23.8600046505        4.6803343258
  C        47.2336219837       22.8151352862        5.4097055975
  C        46.7719639198       25.5868249367        2.8697905776
  C        46.7608553594       25.5571863803        1.4480346953
  C        47.2604347063       24.4418916757        0.7046072188
  C        14.8605617037        8.5707736107        0.7086400020
  C        14.8918972652        8.5971543103        3.5202217386
  C        49.1130025591       21.2033230067       10.1453784763
  C        48.5274923209       22.3645424820       10.8727698392
  C        49.2667546013       23.0254150741       11.8655363748
  C        48.6903521136       24.0599289303       12.5970031487
  C        47.3598732136       24.4564759846       12.3588335741
  C        46.6393415900       23.8112934877       11.3355938170
  C        47.2129636553       22.7753974160       10.6038343541
  C        46.7214795431       25.5315579409       13.1497593453
  C        46.7330918156       25.5279403614       14.5714583489
  C        47.2481708700       24.4285642155       15.3278460472
  C        40.6288050238       17.0856876604       15.3118729272
  C        40.6463908368       17.1224368425       12.5028749591
  C        11.8828878008       14.0865505540       10.2854619915
  C        12.4722214588       12.9106252906       10.9896346237
  C        11.7147073693       12.1774990129       11.9157814572
  C        12.2812962831       11.0950362485       12.5842101308
  C        13.6201095807       10.7213226033       12.3523946117
  C        14.3580630923       11.4367997194       11.3915141608
  C        13.7926280019       12.5179511194       10.7187990394
  C        14.2537966872        9.6246446030       13.1228252110
  C        14.2525997425        9.6446435613       14.5446629815
  C        13.7425545368       10.7535215632       15.2917212999
  C        22.5101147669        3.2451882028        5.7531201172
  C        23.2186957502        4.3540487087        5.0538936291
  C        24.2189742137        4.0822300496        4.1089470486
  C        24.8381908800        5.1273933772        3.4282512546
  C        24.4719988142        6.4661399916        3.6719222020
  C        23.5001178457        6.7294830938        4.6541898388
  C        22.8768516415        5.6864564650        5.3336267477
  C        25.0685244924        7.5780053399        2.8974442092
  C        25.0473222200        7.5678874108        1.4758659221
  C        24.3553920845        6.5621922292        0.7287243291
  C        38.3053352720       31.9319343392        5.8486314395
  C        37.5808112852       30.8426025586        5.1355301768
  C        36.6209595167       31.1463222827        4.1584895815
  C        36.0085495001       30.1256100604        3.4374089887
  C        36.3426005899       28.7778535055        3.6730581617
  C        37.2741825441       28.4813991922        4.6853727840
  C        37.8902442402       29.5008229246        5.4054529783
  C        35.7400489162       27.6868591941        2.8774562307
  C        35.7581881182       27.7059991762        1.4564091778
  C        36.4619080720       28.7080967176        0.7166729380
  C        25.6659027314        8.6406033928        0.7566087940
  C        25.6517716573        8.6599702810        3.5693941649
  C        38.3279798401       31.9632625806       10.1544113928
  C        37.6025776204       30.8909008136       10.8936222808
  C        36.6724366954       31.2018352734       11.8970852888
  C        36.0591143966       30.1845856451       12.6253087288
  C        36.3622510074       28.8317687799       12.3732081304
  C        37.2693592677       28.5306166010       11.3390467673
  C        37.8847182864       29.5445167535       10.6119619085
  C        35.7529372215       27.7349520080       13.1588219760
  C        35.7652101809       27.7303352402       14.5804469772
  C        36.4650241134       28.7196528628       15.3401234772
  C        46.1353633909       26.6207610362       15.2815404132
  C        46.0877793507       26.5800254650       12.4736648172
  C        22.4615703284        3.2571457316       10.2589210572
  C        23.1551125222        4.3668041980       10.9821669041
  C        24.1563890465        4.0829306154       11.9247507961
  C        24.7828139010        5.1142821835       12.6210000255
  C        24.4288077961        6.4601838592       12.3978097984
  C        23.4509965187        6.7372178144       11.4233570958
  C        22.8198446140        5.7062355028       10.7277767847
  C        25.0557720874        7.5607525823       13.1732662158
  C        25.0415928890        7.5581143144       14.5962912980
  C        24.3500246506        6.5592049197       15.3518176620
  C        26.6255913406       17.8549044858        5.7417474608
  C        25.3225303207       17.9061105006        5.0134821157
  C        25.0441852211       18.9165470503        4.0801193641
  C        23.8244551102       18.9384417819        3.4064778660
  C        22.8462392782       17.9522258170        3.6456447288
  C        23.1201886206       16.9628758283        4.6081082401
  C        24.3408966959       16.9372406579        5.2796846382
  C        21.5695046568       17.9384866331        2.8888183149
  C        21.5709264160       17.9139013521        1.4672650459
  C        22.7772260105       17.7827971120        0.7095100131
  C        34.4926989021       17.2210679513        5.9880428077
  C        35.7738150480       17.1610825729        5.2291161153
  C        35.9353943895       16.2087571211        4.2106272032
  C        37.1015307001       16.1856964445        3.4506096402
  C        38.1348292149       17.1128460597        3.6881926863
  C        37.9719021923       18.0479214974        4.7291916181
  C        36.8036329340       18.0782313388        5.4861621661
  C        39.3808474339       17.1085088531        2.8893539135
  C        39.3732239871       17.1129770169        1.4668589371
  C        38.1658122420       17.2308317307        0.7084532941
  C        20.3251960231       17.9334067734        0.7588264964
  C        20.3462094046       17.9420846392        3.5728783277
  C        34.5085666835       17.2120746487       10.1076098193
  C        35.7986335333       17.1349402501       10.8475863647
  C        35.9913175390       16.1552310681       11.8328208478
  C        37.1641450039       16.1371137109       12.5828380079
  C        38.1730686154       17.0945327319       12.3630694315
  C        37.9852613096       18.0504716711       11.3467470053
  C        36.8088470585       18.0773419300       10.6035392456
  C        39.4149634823       17.1068518014       13.1670521853
  C        39.3911777469       17.1113365460       14.5885004063
  C        38.1739233882       17.2270700748       15.3312293517
  C        35.1323617166       26.6541872223       15.2866189245
  C        35.1615184583       26.6636729041       12.4783772422
  C        26.5735429356       17.8279342131       10.3265323959
  C        25.2591178850       17.8713577339       11.0327020572
  C        25.0028414415       18.8659310707       11.9884732118
  C        23.7829583171       18.8935416195       12.6583299536
  C        22.7925494435       17.9250130345       12.3987771008
  C        23.0452639049       16.9539980282       11.4129535027
  C        24.2647825575       16.9254274288       10.7394252167
  C        21.5278673984       17.9065989878       13.1693836937
  C        21.5494834459       17.8939169956       14.5907424964
  C        22.7666623138       17.7715879118       15.3334476186
  C        14.0459754656       17.8297549508       10.2870288490
  C        15.3513215246       17.8890619231       11.0096897944
  C        15.6086833785       18.8949356897       11.9540151051
  C        16.8183455387       18.9172571243       12.6453535431
  C        17.8036899325       17.9365148463       12.4136076837
  C        17.5514938964       16.9552870266       11.4364615415
  C        16.3412411518       16.9283940796       10.7469108315
  C        19.0718648537       17.9186912971       13.1828755874
  C        19.0682497364       17.9146416658       14.6051328852
  C        17.8603602812       17.8178736311       15.3655135532
  C        46.8046990453       17.2168140184       10.1573202657
  C        45.5145841088       17.1492568520       10.9001417626
  C        45.3083574804       16.1615324066       11.8756787178
  C        44.1265577891       16.1362418588       12.6107934598
  C        43.1219969070       17.0989494443       12.3925835180
  C        43.3251940833       18.0661276390       11.3897724144
  C        44.5074764232       18.0950235432       10.6549391883
  C        41.8696649411       17.1040417955       13.1814966339
  C        41.8756767419       17.0978413023       14.6030394147
  C        43.0856785678       17.1882381840       15.3601043995
  C        20.3140480854       17.9228919695       15.3142352179
  C        20.2964342345       17.8989862313       12.5017131193
  C        46.7852519404       17.2308654358        5.8881901959
  C        45.4839519069       17.1224553994        5.1708734595
  C        45.2674684577       16.1178300536        4.2152895649
  C        44.0810568120       16.0859185702        3.4868283413
  C        43.0816448721       17.0558516796        3.6964871447
  C        43.2888117928       18.0308614345        4.6902232959
  C        44.4761008330       18.0689042175        5.4143132157
  C        41.8356529903       17.0730521484        2.8993022552
  C        41.8582959219       17.0812000365        1.4784684314
  C        43.0773788203       17.1777997933        0.7367704261
  C        46.1531131223       26.6372200011        0.7262923353
  C        46.1622732460       26.6560581561        3.5359332139
  C        14.0441393779       17.8313954858        5.7081692022
  C        15.3640626440       17.9057808407        5.0151496602
  C        15.6351831605       18.9222237407        4.0870680998
  C        16.8627944984       18.9607939311        3.4297217158
  C        17.8468759705       17.9821876529        3.6751287599
  C        17.5823297962       16.9940705470        4.6408897833
  C        16.3566488330       16.9549735372        5.3016210531
  C        19.1137118973       17.9593129392        2.9054909183
  C        19.0900465735       17.9351067009        1.4838085646
  C        17.8707524591       17.8269697857        0.7419327290
  C        28.8108303004       14.0956185657       10.3917032630
  C        28.1915207026       12.9277272874       11.0846139388
  C        28.9048989068       12.2025973870       12.0509564872
  C        28.3027771159       11.1293791481       12.7034069168
  C        26.9740706452       10.7575749927       12.4138929688
  C        26.2829669289       11.4649218084       11.4137027872
  C        26.8820527846       12.5384706790       10.7599039623
  C        26.3018038598        9.6782436514       13.1728854575
  C        26.2783579723        9.7098242975       14.5938794020
  C        26.7702751166       10.8279792110       15.3395966821
  C        32.1836245735       21.2477362371       10.1364868246
  C        32.7775248619       22.4104034845       10.8596805563
  C        32.0199019895       23.0910076442       11.8252919593
  C        32.5841388467       24.1322676100       12.5555162419
  C        33.9209624096       24.5187191736       12.3407030051
  C        34.6621200523       23.8545221094       11.3455074659
  C        34.1001597655       22.8081618394       10.6167405518
  C        34.5443877017       25.5970304887       13.1404404075
  C        34.5327873227       25.5726604824       14.5619418542
  C        34.0113346748       24.4647838986       15.3025283039
  C        25.6693043569        8.6310298728       15.3116891894
  C        25.6726529098        8.6231972298       12.4984265464
  C        32.1145484378       21.2407134707        5.8819615557
  C        32.7055829923       22.3935884811        5.1426568853
  C        31.9489718932       23.1181728904        4.2081682731
  C        32.5334039195       24.1400134175        3.4647220191
  C        33.8890161158       24.4743636712        3.6453938804
  C        34.6313765530       23.7691216108        4.6111318772
  C        34.0516038386       22.7369013516        5.3445900007
  C        34.5257216515       25.5559067541        2.8587930868
  C        34.5196478094       25.5534424019        1.4377579267
  C        34.0015577611       24.4570927283        0.6794519525
  C        40.6194694274       17.0817753659        0.7567496899
  C        40.6064894409       17.1035929472        3.5655257674
  C        28.7093709729       14.0954487821        5.8197430775
  C        28.0862559921       12.9562316148        5.0836963080
  C        28.8185073827       12.2495676272        4.1167405212
  C        28.2326438768       11.1966090177        3.4196078592
  C        26.8971415334       10.8194325394        3.6646667639
  C        26.1806270889       11.5122623395        4.6587589009
  C        26.7648487400       12.5684837845        5.3565131545
  C        26.2585328774        9.7258423729        2.8927128492
  C        26.2579063576        9.7342320314        1.4705006598
  C        26.7584227070       10.8411354254        0.7156000893
  C        18.1353825190        3.1812042601       10.3172578654
  C        17.4061421629        4.2783855465       11.0158124551
  C        16.3904986771        4.0000595966       11.9434317143
  C        15.7428583672        5.0400851003       12.6069064399
  C        16.0947807459        6.3837978322       12.3671490000
  C        17.0841251159        6.6532462154       11.4033287722
  C        17.7331792075        5.6158853401       10.7382956751
  C        15.4704752497        7.4914944663       13.1301630164
  C        15.4858790167        7.4908337884       14.5518596072
  C        16.1877040296        6.4973790873       15.3049893815
  C        42.9461333677       31.8595837664       10.0729720447
  C        43.6465388458       30.7719523664       10.8167983304
  C        44.5920088033       31.0932712898       11.8029462036
  C        45.1976907478       30.0877088926       12.5505947675
  C        44.8713474150       28.7346280189       12.3356423994
  C        43.9456841379       28.4202868349       11.3222663070
  C        43.3369187162       29.4254380324       10.5742182829
  C        45.4887650346       27.6552982913       13.1388835162
  C        45.4929547875       27.6810263327       14.5605690238
  C        44.8061055919       28.6892375982       15.3071864715
  C        14.8567940872        8.5632482602       15.2642186170
  C        14.8750540062        8.5631489521       12.4515289925
  C        42.9465622751       31.9616178619        5.8090116652
  C        43.6918659132       30.8855587076        5.0956569495
  C        44.6560580098       31.1915206665        4.1229584538
  C        45.2776066563       30.1719521750        3.4052520043
  C        44.9542569086       28.8215714603        3.6431998036
  C        44.0213473211       28.5238806767        4.6545295364
  C        43.3930873257       29.5406106940        5.3667388929
  C        45.5631405140       27.7241686074        2.8578903268
  C        45.5334328100       27.7175391779        1.4365891682
  C        44.8273524467       28.7079018149        0.6835793972
  C        35.1277163238       26.6429306649        0.7310640843
  C        35.1465609264       26.6073255340        3.5412457400
  C        18.1486750552        3.2472056516        5.7066047394
  C        17.4302306438        4.3439999715        4.9972260444
  C        16.4151415885        4.0527730548        4.0735041796
  C        15.7668781907        5.0834290654        3.3981321948
  C        16.1214664647        6.4286599341        3.6210192342
  C        17.1127489514        6.7119986883        4.5783878099
  C        17.7603804980        5.6830601144        5.2581360113
  C        15.4909419142        7.5243541649        2.8486262069
  C        15.4969498591        7.5077643614        1.4275032551
  C        16.1939421290        6.5062246106        0.6808001412
  H        10.6724469666       12.4660167781        3.9043510473
  H        11.6946214542       10.5511895844        2.6624626376
  H        15.3914478472       11.1682276353        4.7725825603
  H        14.3508798634       13.0710206026        6.0178916917
  H        13.3758501947       11.6310664973        1.2013045010
  H        50.3225119017       22.7486440599        3.9871269015
  H        49.3192050796       24.6230179681        2.6809546551
  H        45.6414981549       24.1604801924        4.8632823421
  H        46.6625357524       22.2896088459        6.1715551717
  H        47.6285825833       23.5753686531        1.2463320867
  H        14.8721251066        8.5883397793        4.6085266283
  H        50.2868534788       22.7026762623       12.0603367580
  H        49.2687126021       24.5755357232       13.3604271077
  H        45.6098065447       24.1082140279       11.1467405048
  H        46.6520433524       22.2529148733        9.8325540918
  H        47.6065402147       23.5512806599       14.7969359688
  H        40.6523897038       17.0948426473       11.4149624625
  H        48.6870471689       14.0947374955        7.8000415579
  H        10.6812201806       12.4665653253       12.0931412133
  H        11.6894642950       10.5246515169       13.2968839782
  H        15.3934928732       11.1588928064       11.2055933074
  H        14.3648826889       13.0872682801        9.9901610095
  H        13.3754787041       11.6220233086       14.7530731907
  H        47.9300217131       14.2180990557        9.7103638279
  H        47.7798975340       14.3730166434        6.4952015738
  H        49.0829747348       18.5517390966       10.8670833389
  H        10.4155084859       14.1342886250        7.9986075782
  H        24.4890262208        3.0459311612        3.9182068107
  H        25.6144428954        4.9169184323        2.6957605734
  H        23.2101456309        7.7599721853        4.8486028819
  H        22.1042692685        5.8799553666        6.0736777683
  H        23.7966825643        5.8029308317        1.2681199241
  H        36.3800535684       32.1893011585        3.9671021192
  H        35.2626325465       30.3625104523        2.6819637717
  H        37.5391808324       27.4428272913        4.8722996265
  H        38.6351473308       29.2823230489        6.1668595560
  H        37.0322018131       29.4554833248        1.2605472975
  H        25.6820228943        8.6447938045        4.6573920248
  H        36.4517342700       32.2465811197       12.1039031113
  H        35.3327021544       30.4304330241       13.3967381383
  H        37.5147687188       27.4898654600       11.1381498335
  H        38.6082024561       29.3179751483        9.8326022849
  H        37.0387609834       29.4756708799       14.8118449312
  H        46.1092116712       26.5873095861       11.3856297393
  H        44.6684737451       35.1163068797        7.8138726240
  H        24.4348393738        3.0451694771       12.0938062450
  H        25.5625887296        4.8858755591       13.3444633896
  H        23.1654979833        7.7712783770       11.2410499867
  H        22.0491835051        5.9187054357        9.9903760760
  H        23.7863832989        5.7983544610       14.8196961655
  H        44.9544995271       34.3909519900        9.6955122883
  H        44.9021427882       34.2070480714        6.4904648789
  H        40.6665421178       33.2094925251       10.8533126280
  H        23.1503865039        1.9584462500        8.0054805562
  H        25.7876527879       19.6899043183        3.9021145475
  H        23.6128378851       19.7281423410        2.6887026663
  H        22.3766244595       16.1919625734        4.7999532498
  H        24.5630528732       16.1621369673        6.0094002975
  H        23.7164454809       17.6583613327        1.2404607991
  H        35.1259166380       15.5077277625        4.0185999616
  H        37.2260910566       15.4391897683        2.6693331056
  H        38.7616254765       18.7727558790        4.9155438193
  H        36.6617385755       18.8155792763        6.2729569845
  H        37.2257722511       17.3549467995        1.2383696775
  H        20.3532703473       17.9820370002        4.6607393301
  H        35.2013426043       15.4293053996       12.0109841677
  H        37.3117584232       15.3757954255       13.3456585851
  H        38.7584392110       18.7961610946       11.1738804590
  H        36.6410465783       18.8344103330        9.8411924583
  H        37.2403135743       17.3476015067       14.7887897499
  H        35.1354646859       26.6858770182       11.3905835372
  H        28.5027357504       21.0829071114        7.9905425800
  H        25.7735965030       19.6064620007       12.1903606477
  H        23.5828062506       19.6696152159       13.3938718426
  H        22.2894639693       16.1986054448       11.2077869033
  H        24.4759584504       16.1644036291        9.9920203365
  H        23.6977920758       17.6388351399       14.7906668068
  H        28.9834163980       21.7237815777        9.7733595635
  H        29.1730498265       21.7358416669        6.6400242433
  H        32.1700366882       18.5503023328       10.9175119265
  H        27.3984044210       19.0752303376        8.0809720960
  H        14.8500650571       19.6540612963       12.1310310033
  H        17.0149481592       19.7028232496       13.3718163905
  H        18.3026113273       16.1905863752       11.2493882258
  H        16.1336277556       16.1577226014       10.0083961626
  H        16.9181917609       17.7038783728       14.8372523151
  H        46.0913557449       15.4276206714       12.0509999599
  H        43.9664911738       15.3630979568       13.3590680382
  H        42.5567395121       18.8168672578       11.2175995015
  H        44.6811674403       18.8556032708        9.8973342147
  H        44.0271617955       17.2988782536       14.8297732632
  H        20.2911059975       17.9311937845       11.4136528909
  H        46.0446931163       15.3763384288        4.0451337398
  H        43.9156528865       15.3060448877        2.7466716394
  H        42.5217976863       18.7839734317        4.8582746542
  H        44.6568638320       18.8401470716        6.1590202291
  H        44.0126287555       17.2792005255        1.2796305125
  H        46.1992168471       26.6825681814        4.6233759046
  H        52.7408837039       21.0624803460        8.1946135379
  H        14.8738437174       19.6757216160        3.8976614060
  H        17.0721879737       19.7521188248        2.7131523268
  H        18.3334226457       16.2317668660        4.8375007423
  H        16.1369251657       16.1794695704        6.0313889088
  H        16.9365593043       17.7197602353        1.2849868316
  H        52.3215245298       21.6730237544        6.2946854068
  H        52.0124974248       21.7015336620        9.4954982118
  H        49.0669069757       18.6073205093        5.2043566502
  H        13.2470845346       19.0166894472        7.9768832791
  H        29.9292987806       12.4930685675       12.2752383937
  H        28.8581515245       10.5657056853       13.4498922437
  H        25.2560335486       11.1886144821       11.1834857172
  H        26.3458590741       13.1054503710       10.0029096983
  H        27.1323608546       11.6978643646       14.7999321760
  H        30.9926333885       22.7780240972       11.9967169327
  H        31.9922505490       24.6613385365       13.2992119314
  H        35.6974725016       24.1435488659       11.1769144937
  H        34.6769597299       22.2689846140        9.8687730552
  H        33.6432104226       23.6000175632       14.7578117359
  H        25.7096024364        8.6011419692       11.4106672175
  H        30.8982219448       22.8738198779        4.0729276550
  H        31.9416150421       24.6992612407        2.7432559734
  H        35.6805530997       24.0187159587        4.7554743519
  H        34.6291835936       22.1673855499        6.0691258657
  H        33.6241272839       23.5873278188        1.2099695261
  H        40.6015265611       17.0704022906        4.6532811345
  H        32.5147654499       14.1288476886        8.2498293290
  H        29.8512038824       12.5327743910        3.9287255772
  H        28.8100484708       10.6473297501        2.6791703093
  H        25.1474574605       11.2338174450        4.8562983891
  H        26.2073139006       13.1174332484        6.1118514215
  H        27.1103203858       11.7209958316        1.2464292136
  H        33.3007610659       14.2102424113        6.4464796019
  H        33.4058089552       14.4020476037        9.6002891213
  H        32.0902498229       18.5176912036        5.0281360962
  H        30.2312665448       14.1905497447        8.0711300104
  H        16.1184273453        2.9635673667       12.1298709244
  H        14.9534557925        4.8208074993       13.3226461616
  H        17.3666128169        7.6861047412       11.2102206017
  H        18.5152570081        5.8184961765       10.0104807502
  H        16.7544873647        5.7402084525       14.7714887949
  H        44.8282656531       32.1403419224       11.9772292120
  H        45.9375324281       30.3414559639       13.3065655987
  H        43.6831673563       27.3781946642       11.1520004437
  H        42.6004985074       29.1900574368        9.8093847821
  H        44.2309935514       29.4371849717       14.7688805174
  H        14.8512015644        8.5463471356       11.3633108627
  H        44.8993275798       32.2342154469        3.9312313917
  H        46.0242311004       30.4132429863        2.6517568064
  H        43.7649208861       27.4840978108        4.8465286722
  H        42.6471633845       29.3177306398        6.1257200583
  H        44.2690402735       29.4709667127        1.2181048625
  H        35.1197828730       26.6129606287        4.6292565411
  H        36.6052632870       35.1342725439        8.1804894981
  H        16.1440991966        3.0132039965        3.9036967329
  H        14.9746457512        4.8566680877        2.6879185993
  H        17.3962161471        7.7474617637        4.7553594218
  H        18.5431795486        5.8934940949        5.9829866615
  H        16.7656134442        5.7561673065        1.2192404864
  H        36.2789517452       34.4826002794        6.2731514476
  H        36.3814745457       34.2090537165        9.4993733315
  H        40.5821506257       33.2039733278        5.1534784961
  H        17.4708205408        1.9480440666        7.9743214918
  H        29.0146403130       19.2787454402       12.4608619562
  H        29.8413486826       20.4941926916        3.9404478792
  H        31.1412857723       14.9492256891        3.9829132991
  H        31.3968193258       15.5707027937       12.4977592010
  H        27.9822754782       17.8370864577       14.3916684199
  H        29.4570256722       14.9721850096       13.7694853972
  H        32.0356980969       16.4411437896        0.7262904774
  H        28.7162682327       17.2967389674        1.4676015900
  H        31.3399870174       19.4506341861       13.6732763015
  H        18.8537128727        0.8691446653       12.3352903006
  H        40.5280555134       35.2288542476        3.9518720291
  H        42.3257585988       34.4204368924        3.5896419457
  H        22.0878294112        0.6919288969       12.3520035255
  H        11.5970043129       18.7129814725       12.3823487597
  H        52.2646442196       18.4307383437        3.6774374308
  H        49.2552093193       16.4766046073        3.5844476870
  H        10.1502454417       15.7982140981       12.2930973066
  H        50.8495134656       17.6923474432        3.9542851536
  H        10.0460796670       17.3944493627       12.0520679645
  H        20.2149676816        0.0022974597       12.0419878888
  H        39.1840161245       36.1246484177        3.6865593346
 Ni        30.6477897398       16.7175923728        2.7461326076
 Ni        30.0093313675       16.1189509026       -0.2468613548
 Ni        30.1399094889       18.3802105171       -0.4989928746
 Ni        30.2264706507       17.4484278346       12.9946813189
  O        10.6499614456       14.3651120395        5.4857808338
  O        12.6131996462       14.6575112258        6.5838665344
  O        49.1479616334       16.8459740484        7.9897663167
  O        50.3501273858       20.9362227371        5.6482214528
  O        48.3484901177       20.5933473017        6.6659663866
  O        11.0513571555       17.0539319055        6.5006338450
  O        50.3209277137       20.8817737316       10.4068425867
  O        48.3467075576       20.5867663275        9.3270904911
  O        49.5440541039       18.2484827848       10.0682891374
  O        12.3588362898       18.6245560743        7.9996728575
  O        48.6932682608       14.1485249520        6.7513119817
  O         8.2099254692       14.2102358287        9.3224475626
  O        10.7353915364       14.5066715154       10.6643418369
  O        12.5718243868       14.5827814979        9.3284695229
  O        22.8446364557        2.0444328325        5.4871122573
  O        21.6043578134        3.5916629364        6.5911385977
  O        42.0585491581       34.1378134971        7.9791938399
  O        37.9820957264       33.1395598530        5.5729145534
  O        39.2187860266       31.5769888785        6.6673853810
  O        20.3086460986        1.0400555365        6.5022924007
  O        38.0250494719       33.1867348887       10.4148484558
  O        39.2192354402       31.5839003226        9.3263509142
  O        40.6524847066       33.7696198826       10.0603237161
  O        18.2552992715        1.3765935782        7.9968768676
  O        44.6221858507       35.1006168982        6.7587346967
  O        24.2054690780        0.0000635058        9.3207733381
  O        22.7532944270        2.0586582843       10.5844754695
  O        21.6248745353        3.5966220471        9.3437731466
  O        27.5463685551       18.6920352386        5.4075019453
  O        26.7317666831       16.9916942080        6.6669869099
  O        30.6756791099       19.4121462661        8.0136253648
  O        33.6636279677       16.2735820993        5.8197399163
  O        34.3075636119       18.2487331716        6.7381157060
  O        29.5728864696       17.0651640834        6.5762582628
  O        33.6720888804       16.2628469410       10.2495763206
  O        34.3129345346       18.2572537610        9.3966976318
  O        31.7143522588       18.3147746137       10.0911721584
  O        30.3249802427       15.1573271721        8.0783464724
  O        28.5525726174       21.0329796150        6.9046257969
  O        28.5117503301       20.9587123526        9.4025514356
  O        27.4594885288       18.6783471249       10.6580691789
  O        26.6945744688       16.9291406813        9.4123231560
  O        13.1483028724       18.6932041751       10.5871002868
  O        13.9190624703       16.9160950962        9.4045817766
  O        50.5958107453       19.3502535465        8.0204950298
  O        47.6842722018       16.3264371456       10.4166306082
  O        46.9517140345       18.1756774816        9.3249364715
  O        11.0696563143       17.0155155211        9.4897432837
  O        47.6764787077       16.3353427813        5.6534767141
  O        46.9269803142       18.2355829709        6.6638638104
  O        49.5688132318       18.3177526861        5.9822769012
  O        10.3185440802       15.1001784807        7.9970596236
  O        52.6707139871       21.0279330869        9.2418280962
  O        12.1468011261       20.8912150177        6.6732083603
  O        13.1073753479       18.6139641182        5.3256022005
  O        13.9568346906       16.9870886556        6.6649962802
  O        29.9921993620       14.4450822935       10.7284387981
  O        28.0890867965       14.6551684733        9.4910098312
  O        32.1056928727       16.9165955655        8.0168104552
  O        30.9712433197       20.9603815001       10.3948699322
  O        32.9522603432       20.6057955008        9.3330864144
  O        29.5729582107       17.0779189727        9.5771075363
  O        30.8792384836       20.9559891362        5.6579724244
  O        32.8773971855       20.5913066879        6.6609344240
  O        31.6059366485       18.2432302732        5.8236556996
  O        28.2850742516       18.6791357542        8.0718368436
  O        32.4904205957       14.2053370512        9.3233605116
  O        32.4045778199       14.2097418524        6.8241336811
  O        29.8991767662       14.4316330775        5.5013397725
  O        28.0057235775       14.6488106765        6.7399054780
  O        17.8892308102        1.9667512421       10.6628392656
  O        18.9562193484        3.5272548859        9.4080580313
  O        39.1687479849       34.1390431288        7.9972967778
  O        43.2802343071       33.0590508351       10.3317394504
  O        42.0346050356       31.5065057886        9.2417032189
  O        20.3179888646        1.0369709475        9.4802591988
  O        43.2760069528       33.1826156125        5.5749313541
  O        42.0052393006       31.5841128537        6.5830048791
  O        40.5793898414       33.7755412388        5.9363947584
  O        22.3675465133        1.3848076561        7.9980997164
  O        36.6727280735       35.0998992671        9.2332233818
  O        16.4455978125        0.0644863486        6.6684086254
  O        17.9365239744        2.0434945443        5.3263919340
  O        18.9189941256        3.5932051316        6.6659946240
  O        29.5650869805       19.5592186310        4.0013511167
  O        29.8191540023       19.1127724323       11.9179248445
  O        31.5627603483       15.8269376336        4.0994318489
  O        31.5039740192       16.3529744302       11.9117705903
  O        32.4393819463       16.7793695745        1.5768044086
  O        29.6601182510       17.3558424247        1.2415714550
  O        30.2498714669       15.4649191531       14.0520198776
  O        31.4702480623       18.6117561011       14.1575828608
  O        28.6973605347       18.4518713381       14.1568739944
  O        39.4568514982       35.2438607609        4.0019583578
  O        19.1414903817        0.0046271444       11.9905538401
  O        41.9695401371       35.1727562474        4.0872904156
  O        21.6912855545       -0.0692710745       11.8960591022
  O        51.3648953331       18.6142495234        4.0054124660
  O        10.7511570632       18.7472752789       11.9049411336
  O        50.0797080650       16.4128710361        4.0917237745
  O         9.5245806938       16.4830766243       11.9912619549
 Zr         9.2958620116       16.0526727721        6.1823371735
 Zr        49.8356772462       16.0065921420        9.7465989390
 Zr        22.0736739347        0.0306291757        6.1890210330
 Zr        42.4615359398       35.1541811203        9.8013918205
 Zr        29.6094450930       19.0857562526        6.3330045176
 Zr        29.5930627340       19.1820048775        9.8542250019
 Zr        11.0372615572       19.0519218862        9.8275535903
 Zr        11.0430582838       19.1547775768        6.2513282488
 Zr        31.3815512537       16.0954031226        9.8404187024
 Zr        31.4087220556       15.9983574762        6.2725331588
 Zr        18.6016083727       -0.0004638504        9.7632350185
 Zr        18.5070287310       -0.0064562377        6.2141130378
 Zr        12.3008785994       16.3234499920        7.9902074591
 Zr        48.6152915862       18.8325925348        8.0102305068
 Zr        20.3156760778        2.4742826028        7.9912004266
 Zr        40.6447090591       32.6880317899        7.9786509260
 Zr        28.3445755959       16.3463518208        8.0966828685
 Zr        32.6679330708       18.8517785855        8.0502674736
  H        29.4362310065       16.6503474331        3.5240703508
  H        28.6239480665       19.4792861964        3.7506989161
  H        32.7071503792       17.6891722640        1.3523929204
