     566
 i =      107, E =     -4712.2622716180
  C        11.8584483424       14.0534380545        5.7415657950
  C        12.4558595314       12.8904151509        5.0232736964
  C        11.7042441768       12.1716449610        4.0814301511
  C        12.2805695636       11.1093732834        3.3891195421
  C        13.6210538158       10.7393183199        3.6170248802
  C        14.3541323837       11.4427113108        4.5907086075
  C        13.7812739133       12.5077169427        5.2822056880
  C        14.2605751988        9.6486117287        2.8436381261
  C        14.2558619159        9.6564804178        1.4219251414
  C        13.7426990490       10.7585816862        0.6679845122
  C        49.1264737720       21.2333629533        5.8798024501
  C        48.5495979565       22.4012208109        5.1527700966
  C        49.2996804542       23.0686039212        4.1718362149
  C        48.7327569116       24.1077070603        3.4385975873
  C        47.4021837989       24.5092930473        3.6671352562
  C        46.6711838166       23.8603662518        4.6805871086
  C        47.2336105582       22.8154659879        5.4099756075
  C        46.7719957454       25.5869889597        2.8698096054
  C        46.7610218004       25.5573428191        1.4480445307
  C        47.2609558892       24.4422304517        0.7045775826
  C        14.8598201433        8.5701338750        0.7086714433
  C        14.8913993830        8.5966781909        3.5202955742
  C        49.1128404570       21.2033553012       10.1452939096
  C        48.5273648026       22.3646378265       10.8724498369
  C        49.2666105501       23.0254599629       11.8652952084
  C        48.6902441743       24.0599697254       12.5967853566
  C        47.3597651582       24.4566071798       12.3586612154
  C        46.6393247338       23.8115779714       11.3352257478
  C        47.2129098825       22.7757052103       10.6034086382
  C        46.7213249486       25.5315937548       13.1496861241
  C        46.7331547649       25.5280369895       14.5713946870
  C        47.2486472060       24.4288729420       15.3278126181
  C        40.6071237770       17.0691466086       15.3289571390
  C        40.6350615631       17.1073784565       12.5187464721
  C        11.8827516436       14.0863859127       10.2855386945
  C        12.4719067174       12.9104060477       10.9896280762
  C        11.7144590714       12.1773855082       11.9159525658
  C        12.2809893214       11.0948759691       12.5843479755
  C        13.6197112386       10.7208650294       12.3523364645
  C        14.3575515618       11.4361650115       11.3912169767
  C        13.7921846590       12.5173756126       10.7185345208
  C        14.2533578177        9.6241484608       13.1227943172
  C        14.2520422217        9.6441029403       14.5446478386
  C        13.7421462546       10.7530342891       15.2917288613
  C        22.5236518213        3.2493288515        5.7571633603
  C        23.2617458569        4.3549925666        5.0736991003
  C        24.2755239584        4.0721265869        4.1452002801
  C        24.9248108863        5.1082516262        3.4764104257
  C        24.5799216688        6.4546128981        3.7124380433
  C        23.5958374692        6.7291674023        4.6803057598
  C        22.9419814056        5.6944558248        5.3482603240
  C        25.1967928762        7.5566638707        2.9301390424
  C        25.1436661482        7.5483740367        1.5078369585
  C        24.4241193782        6.5512037566        0.7749083797
  C        38.2973815919       31.9250623294        5.8534812480
  C        37.5566624049       30.8309775075        5.1581133202
  C        36.5828447707       31.1279252933        4.1919934094
  C        35.9564610525       30.1032854777        3.4867775865
  C        36.2885114207       28.7543886365        3.7229887369
  C        37.2303401679       28.4648147874        4.7284751413
  C        37.8601238464       29.4882539755        5.4334927009
  C        35.6874838808       27.6603268327        2.9234456986
  C        35.7256705455       27.6798207327        1.5013428660
  C        36.4307801979       28.6881703304        0.7708478331
  C        25.7571774464        8.6149726525        0.7740105359
  C        25.8204909614        8.6274956983        3.5860750352
  C        38.3313397108       31.9590978514       10.1636172249
  C        37.6188242156       30.8852080787       10.9186059847
  C        36.6870287088       31.1936917317       11.9222271977
  C        36.0800267086       30.1768884685       12.6585533987
  C        36.3885335623       28.8227016017       12.4169938883
  C        37.3024922616       28.5241685602       11.3870919910
  C        37.9112548310       29.5374307219       10.6518420613
  C        35.7738001767       27.7220590647       13.1988785083
  C        35.7688479664       27.7122385373       14.6220697247
  C        36.4507993435       28.7042695034       15.3942367320
  C        46.1352048125       26.6207224866       15.2815104868
  C        46.0873217773       26.5799136986       12.4736088970
  C        22.4578268313        3.2563542214       10.2643051127
  C        23.1439169558        4.3625707012       11.0003387412
  C        24.1351857024        4.0718940770       11.9516126664
  C        24.7602514665        5.0979613718       12.6567148570
  C        24.4152908927        6.4463285931       12.4340466974
  C        23.4435120430        6.7298311231       11.4550329500
  C        22.8139127626        5.7040422620       10.7502207634
  C        25.0558692150        7.5434165188       13.2032466106
  C        25.0709065086        7.5410831863       14.6268487294
  C        24.3879165084        6.5485058400       15.3982429678
  C        26.5553359948       17.8134674045        5.7936407658
  C        25.2564337990       17.8731361216        5.0669009910
  C        25.0097195624       18.8755799486        4.1157593828
  C        23.8025260894       18.9023476356        3.4222282918
  C        22.8100614772       17.9304013216        3.6590125362
  C        23.0518500816       16.9523385271        4.6418448630
  C        24.2603839005       16.9199840411        5.3334881847
  C        21.5451481739       17.9220900321        2.8865524036
  C        21.5546993492       17.9121058448        1.4647179980
  C        22.7647115773       17.7910532010        0.7111489987
  C        34.3547168093       17.1804584928        5.8716837608
  C        35.6500762423       17.1046278773        5.1385497698
  C        35.8474524414       16.1535895404        4.1240163705
  C        37.0429368065       16.1246071966        3.4091096309
  C        38.0746137123       17.0462923662        3.6811580773
  C        37.8782573584       17.9739756490        4.7235862813
  C        36.6837303623       18.0070635574        5.4392302847
  C        39.3374457859       17.0540457513        2.9031025342
  C        39.3404543496       17.0763976505        1.4797706539
  C        38.1382574156       17.2070777554        0.7157176492
  C        20.3120308828       17.9377659033        0.7507512298
  C        20.3186363307       17.9193068211        3.5634537987
  C        34.4395890765       17.2389976373       10.1909085176
  C        35.7421161978       17.1377108970       10.9109287612
  C        35.9416432983       16.1642889522       11.9016537107
  C        37.1322414911       16.1309628480       12.6238412498
  C        38.1528778143       17.0712033025       12.3793202552
  C        37.9589054804       18.0176221972       11.3549668102
  C        36.7683584284       18.0551990885       10.6344813941
  C        39.3999429473       17.0866299627       13.1781298746
  C        39.3725086293       17.0941281893       14.6003400788
  C        38.1532447589       17.2136427217       15.3389265972
  C        35.1355622529       26.6290463949       15.3196014688
  C        35.1891973859       26.6512443494       12.5091624381
  C        26.5697327851       17.8287537290       10.3289413158
  C        25.2565081002       17.8800532013       11.0325948519
  C        24.9975405022       18.8846599453       11.9773151942
  C        23.7793182634       18.9145738190       12.6496129933
  C        22.7921072827       17.9408455200       12.3989531257
  C        23.0457276992       16.9617160876       11.4215846100
  C        24.2647424601       16.9287679427       10.7483333370
  C        21.5266919742       17.9261757452       13.1669606459
  C        21.5445117760       17.9127859944       14.5880695326
  C        22.7592496654       17.7911978295       15.3348011400
  C        14.0460312996       17.8322307015       10.2841265842
  C        15.3530597892       17.8975828979       11.0010697776
  C        15.6120821692       18.9114447679       11.9362322142
  C        16.8228586786       18.9387576909       12.6247857298
  C        17.8062257317       17.9548347602       12.3992881954
  C        17.5532019704       16.9665727235       11.4297691801
  C        16.3420002512       16.9349660900       10.7424684995
  C        19.0721993871       17.9388117012       13.1708638802
  C        19.0632387173       17.9322878169       14.5926440736
  C        17.8515036687       17.8347557131       15.3464722644
  C        46.8016215642       17.2189650573       10.1620518786
  C        45.5115944703       17.1538533955       10.9124803856
  C        45.3119937320       16.1765803990       11.9005920853
  C        44.1310282854       16.1496310798       12.6390291667
  C        43.1151953327       17.0997363114       12.4136131073
  C        43.3132084041       18.0581919990       11.4003197691
  C        44.4951596545       18.0891183334       10.6627657353
  C        41.8582384983       17.0982020381       13.2011103645
  C        41.8570920935       17.0903047133       14.6243752382
  C        43.0615536582       17.1859503126       15.3899345649
  C        20.3062874829       17.9374206564       15.3065578922
  C        20.2984690972       17.9185007627       12.4940540128
  C        46.7784669158       17.2280716389        5.8896411384
  C        45.4681826312       17.1107408389        5.1815862239
  C        45.2479009413       16.1062594418        4.2259820560
  C        44.0541578837       16.0653849469        3.5079280497
  C        43.0457045188       17.0252032469        3.7258038574
  C        43.2561090072       17.9984861403        4.7212743668
  C        44.4514862662       18.0459934031        5.4343426365
  C        41.7963469233       17.0373042224        2.9268327787
  C        41.8254008911       17.0575491584        1.5043899648
  C        43.0465206834       17.1680298366        0.7669030760
  C        46.1530375951       26.6372244482        0.7262701745
  C        46.1621167213       26.6561670727        3.5359104129
  C        14.0392684366       17.8278226753        5.7063401496
  C        15.3528913358       17.8954154216        5.0059486570
  C        15.6244838093       18.9179060902        4.0850988110
  C        16.8486037626       18.9533975728        3.4225442557
  C        17.8249627832       17.9651279943        3.6567985988
  C        17.5589979305       16.9684676595        4.6126768148
  C        16.3372269026       16.9328135032        5.2791963638
  C        19.0912429500       17.9447796366        2.8900819402
  C        19.0734381418       17.9343981039        1.4691181686
  C        17.8565193887       17.8355295564        0.7227751343
  C        28.8016812518       14.0824927806       10.4002403570
  C        28.1947078301       12.9023398304       11.0767248298
  C        28.9180182577       12.1638798502       12.0254182508
  C        28.3202181085       11.0874450299       12.6753705417
  C        26.9843197929       10.7265918053       12.4048137865
  C        26.2843523603       11.4434996133       11.4173416977
  C        26.8801058204       12.5191457055       10.7636180563
  C        26.3160398220        9.6525732234       13.1755767543
  C        26.3210605124        9.6843608761       14.5969311177
  C        26.8295192732       10.8022288137       15.3310314314
  C        32.1777368679       21.2435853687       10.1501277548
  C        32.7777531989       22.4037389824       10.8710512249
  C        32.0303215263       23.0834240072       11.8457884509
  C        32.6031378854       24.1201362966       12.5762171819
  C        33.9394465096       24.5070076571       12.3547154989
  C        34.6693284673       23.8460089641       11.3483991249
  C        34.0993434304       22.8033074757       10.6195824671
  C        34.5682755984       25.5794974663       13.1612390349
  C        34.5512109118       25.5463913357       14.5836190583
  C        34.0414396265       24.4276259732       15.3157669268
  C        25.7232406464        8.6084031308       15.3286580052
  C        25.6667660580        8.6013593807       12.5151161350
  C        32.0661834867       21.1654279123        5.8755907233
  C        32.6574560532       22.3252976743        5.1463431563
  C        31.9358470714       22.9705672259        4.1286977057
  C        32.5168020724       24.0077897407        3.4014245843
  C        33.8347077146       24.4321777142        3.6674430891
  C        34.5369495364       23.7991670581        4.7126088817
  C        33.9617750433       22.7572761233        5.4370628740
  C        34.4780189110       25.5192914696        2.8881664895
  C        34.5043593819       25.5157290784        1.4643775702
  C        34.0189069639       24.4130246547        0.6928566111
  C        40.5906115960       17.0561009835        0.7751783914
  C        40.5610050418       17.0514043646        3.5864807826
  C        28.8300202569       14.1383291650        5.7569223311
  C        28.2436448136       12.9844019025        5.0125779708
  C        28.9615737117       12.3077180209        4.0138769378
  C        28.3873928171       11.2253325847        3.3467408808
  C        27.0782834060       10.7920126803        3.6463718667
  C        26.3799291196       11.4601494051        4.6704132211
  C        26.9512939495       12.5383918308        5.3409484747
  C        26.4256420929        9.6889972568        2.8953277128
  C        26.3783576589        9.7023873527        1.4733144368
  C        26.8539718986       10.8124202731        0.7065113171
  C        18.1357066554        3.1808974955       10.3169556953
  C        17.4064002372        4.2781370040       11.0156408702
  C        16.3903651969        3.9996860830       11.9427978339
  C        15.7425296179        5.0395805179       12.6063387532
  C        16.0946262974        6.3833259820       12.3670738532
  C        17.0843781424        6.6529481312       11.4037084249
  C        17.7335972181        5.6156922099       10.7386130710
  C        15.4700591487        7.4909267934       13.1301334608
  C        15.4851585009        7.4901675994       14.5518619554
  C        16.1866350293        6.4965178031       15.3050604775
  C        42.9457656728       31.8595394218       10.0728444480
  C        43.6460285145       30.7718151087       10.8167951799
  C        44.5917000477       31.0930544847       11.8027577030
  C        45.1973253825       30.0874589027       12.5504190971
  C        44.8706849074       28.7344295847       12.3356692054
  C        43.9447318461       28.4201631832       11.3225458514
  C        43.3360060329       29.4253527365       10.5744933258
  C        45.4882171308       27.6551047339       13.1388709469
  C        45.4924998048       27.6808335782       14.5605630558
  C        44.8055552789       28.6889926565       15.3071658283
  C        14.8560860811        8.5626129032       15.2642196700
  C        14.8747275637        8.5626661331       12.4515348212
  C        42.9464488945       31.9618378193        5.8090147768
  C        43.6916917054       30.8856867872        5.0955316608
  C        44.6563481066       31.1915551938        4.1232791523
  C        45.2778200569       30.1719511422        3.4055227055
  C        44.9539244040       28.8216486741        3.6430808833
  C        44.0203787741       28.5240068369        4.6538100224
  C        43.3921796086       29.5407907664        5.3660194463
  C        45.5628896503       27.7241933121        2.8578374090
  C        45.5331654227       27.7174541731        1.4365394424
  C        44.8269114478       28.7077079994        0.6835568019
  C        35.1126155827       26.6127137077        0.7659148687
  C        35.0824593677       26.5798604339        3.5770855285
  C        18.1488332650        3.2468400298        5.7066978187
  C        17.4299848644        4.3436576247        4.9976040327
  C        16.4147126230        4.0522686624        4.0741129373
  C        15.7662941735        5.0828003701        3.3986661136
  C        16.1208486452        6.4280945246        3.6212672230
  C        17.1122338944        6.7115889936        4.5784944744
  C        17.7600403689        5.6827779361        5.2583180186
  C        15.4902530057        7.5237244334        2.8487405735
  C        15.4960776654        7.5070525802        1.4275859297
  C        16.1928003706        6.5053239165        0.6808826959
  H        10.6721789765       12.4659036054        3.9042521441
  H        11.6942697939       10.5509949319        2.6625084641
  H        15.3910761916       11.1679098493        4.7726457996
  H        14.3506717033       13.0706795777        6.0178984212
  H        13.3756876245       11.6307238489        1.2012649466
  H        50.3224252512       22.7486454530        3.9871701612
  H        49.3192760930       24.6230214095        2.6810790150
  H        45.6416669502       24.1610949992        4.8636898683
  H        46.6625396109       22.2901645569        6.1719881911
  H        47.6295322207       23.5758782196        1.2462777824
  H        14.8717768460        8.5879543533        4.6086048078
  H        50.2867170499       22.7027547498       12.0601227282
  H        49.2686675630       24.5755289985       13.3601975626
  H        45.6098729670       24.1087135442       11.1462479601
  H        46.6520384554       22.2534536233        9.8319397294
  H        47.6074400963       23.5517362166       14.7969502554
  H        40.6455003070       17.0780209916       11.4308055031
  H        48.6867753499       14.0951734814        7.7998535386
  H        10.6810572205       12.4665984923       12.0935371143
  H        11.6891950359       10.5246151405       13.2971498399
  H        15.3928883701       11.1580755584       11.2050554826
  H        14.3644950808       13.0865270373        9.9898104264
  H        13.3753230971       11.6216545420       14.7531018759
  H        47.9300543656       14.2178171248        9.7110921611
  H        47.7798625801       14.3733938675        6.4948326049
  H        49.0824689402       18.5522542438       10.8670313256
  H        10.4154912275       14.1344200165        7.9988137978
  H        24.5326187889        3.0324298458        3.9546706884
  H        25.7068771418        4.8824899594        2.7545276026
  H        23.3180217952        7.7633757946        4.8732435175
  H        22.1607688567        5.9034158598        6.0753126286
  H        23.8708061513        5.7964335721        1.3260714039
  H        36.3416617163       32.1697228278        3.9940456041
  H        35.2031220666       30.3396758408        2.7384422456
  H        37.4956717577       27.4272282572        4.9207593377
  H        38.6130965038       29.2699257681        6.1871364460
  H        36.9877944469       29.4396675380        1.3226815487
  H        25.8765357010        8.6111546018        4.6731969762
  H        36.4564852853       32.2377198608       12.1222762497
  H        35.3506503084       30.4257960198       13.4262962060
  H        37.5564757231       27.4842673063       11.1923003977
  H        38.6364383781       29.3078306608        9.8748220784
  H        37.0242563276       29.4674756818       14.8758435455
  H        46.1086612069       26.5872532040       11.3855697197
  H        44.6683134336       35.1161669879        7.8138151101
  H        24.4091285050        3.0326136066       12.1184648473
  H        25.5351925102        4.8633792230       13.3833427047
  H        23.1635875240        7.7655874776       11.2736301907
  H        22.0499375995        5.9224440405       10.0075537909
  H        23.8054455321        5.7926789859       14.8791980285
  H        44.9540738116       34.3908291894        9.6953884963
  H        44.9011142885       34.2066866544        6.4904663226
  H        40.6663989262       33.2095682274       10.8533665559
  H        23.1512314789        1.9580185237        8.0075300607
  H        25.7722471267       19.6296630228        3.9347568810
  H        23.6132576156       19.6840078505        2.6897254919
  H        22.2943142306       16.1946219226        4.8312289210
  H        24.4615764052       16.1516298474        6.0761761461
  H        23.7030330002       17.6654075919        1.2437615499
  H        35.0498274816       15.4488062864        3.8999791770
  H        37.1899065865       15.3778045262        2.6319670180
  H        38.6626868978       18.6953537489        4.9430661694
  H        36.5225189200       18.7394615181        6.2268914633
  H        37.1956652149       17.3352976509        1.2398177232
  H        20.3198924690       17.9501472340        4.6515468205
  H        35.1451367724       15.4533118965       12.1089244706
  H        37.2815888734       15.3725288923       13.3891621141
  H        38.7379073771       18.7515523378       11.1591059246
  H        36.6005310234       18.8064427530        9.8665601537
  H        37.2223913538       17.3451672517       14.7947675734
  H        35.1704167823       26.6794341966       11.4212916033
  H        28.5021425314       21.0727413520        7.8870443732
  H        25.7628163455       19.6343966989       12.1652979685
  H        23.5768865932       19.6969870660       13.3778189138
  H        22.2906288808       16.2037521876       11.2235979270
  H        24.4775731646       16.1610386299       10.0083840132
  H        23.6933176909       17.6657125681       14.7954242903
  H        29.0112557566       21.7164806166        9.7370450205
  H        29.1857724573       21.7039859195        6.5532836308
  H        32.0431395366       18.5826082739       11.0101727725
  H        27.3689596971       19.0200836567        8.0821438552
  H        14.8536264665       19.6717511551       12.1086275440
  H        17.0215407714       19.7291681329       13.3454127362
  H        18.3039131228       16.2002260682       11.2479886591
  H        16.1324613252       16.1590345140       10.0100597912
  H        16.9114160384       17.7264923372       14.8135011369
  H        46.0996349726       15.4492697663       12.0831641743
  H        43.9806211607       15.3813736291       13.3943728607
  H        42.5398923517       18.8019991880       11.2195394970
  H        44.6594998310       18.8442550016        9.8974731896
  H        44.0054994034       17.3060517574       14.8658447835
  H        20.2973703662       17.9498416887       11.4059701555
  H        46.0287043068       15.3708242223        4.0454876761
  H        43.8916738389       15.2852373619        2.7673117606
  H        42.4857839951       18.7459498195        4.8997058904
  H        44.6302951582       18.8184415762        6.1784876313
  H        43.9790141939       17.2731308185        1.3138386498
  H        46.1989647119       26.6827508001        4.6233547951
  H        52.7411911293       21.0627007830        8.1946209357
  H        14.8671734618       19.6781905401        3.9074299586
  H        17.0624168092       19.7493658019        2.7124945049
  H        18.3062770570       16.1995054152        4.7972898698
  H        16.1139195124       16.1530940883        6.0032785174
  H        16.9201770796       17.7278781533        1.2620970785
  H        52.3227030512       21.6736870708        6.2945527288
  H        52.0137467313       21.7027322444        9.4955578796
  H        49.0657286030       18.6070221328        5.2045314676
  H        13.2469547623       19.0165135022        7.9759436943
  H        29.9440825357       12.4508746121       12.2441630434
  H        28.8825769860       10.5161343197       13.4106877204
  H        25.2524398881       11.1756259723       11.1998248525
  H        26.3345651728       13.0951549921       10.0202624353
  H        27.1746495002       11.6741681795       14.7837444273
  H        31.0043299388       22.7729202277       12.0277703768
  H        32.0176739368       24.6440652443       13.3285813232
  H        35.7036882722       24.1333095696       11.1708465573
  H        34.6711087584       22.2685912020        9.8646394719
  H        33.6921994549       23.5585189377       14.7655047972
  H        25.6833293653        8.5766421260       11.4269279703
  H        30.9245280963       22.6348313435        3.9094032445
  H        31.9470123190       24.5055286737        2.6197938578
  H        35.5567800352       24.1114785371        4.9278602255
  H        34.5152200496       22.2506701671        6.2244543827
  H        33.6526478617       23.5319397390        1.2121648079
  H        40.5511552380       17.0091582496        4.6741055657
  H        32.5194192815       14.1269235612        8.3677173859
  H        29.9702034254       12.6382148235        3.7749310676
  H        28.9566585197       10.6992385547        2.5834619864
  H        25.3667290625       11.1454545336        4.9118144194
  H        26.4040321872       13.0630421135        6.1200229375
  H        27.2153858875       11.6935795071        1.2282631625
  H        33.2800098280       14.1487294062        6.4216829654
  H        33.4027372528       14.4450812650        9.6763965389
  H        32.1444252997       18.5000564195        5.1299015967
  H        30.1960481457       14.1444707963        8.1346515740
  H        16.1181073111        2.9631756550       12.1288771994
  H        14.9528057173        4.8200944995       13.3216689135
  H        17.3670017884        7.6858348002       11.2109375187
  H        18.5159176847        5.8184484605       10.0110977517
  H        16.7531816032        5.7391571897       14.7715736618
  H        44.8281711403       32.1401050479       11.9768700370
  H        45.9373139948       30.3411526468       13.3062631248
  H        43.6818933047       27.3781172808       11.1525003134
  H        42.5993422772       29.1900759155        9.8098512508
  H        44.2302546223       29.4367940242       14.7688506826
  H        14.8510783583        8.5459182075       11.3633114111
  H        44.8999916000       32.2342179976        3.9318607443
  H        46.0247586510       30.4131698824        2.6523142599
  H        43.7632967713       27.4842916935        4.8452960811
  H        42.6456281804       29.3180014572        6.1244164837
  H        44.2685259101       29.4706956020        1.2181257452
  H        35.0348955303       26.5899242450        4.6644683546
  H        36.6053844569       35.1338532084        8.1810595622
  H        16.1436721943        3.0126728475        3.9044399564
  H        14.9739466549        4.8558157750        2.6886488060
  H        17.3957108722        7.7470776042        4.7553075085
  H        18.5429825836        5.8933803371        5.9829647134
  H        16.7641897941        5.7550506992        1.2193228243
  H        36.2790578566       34.4820204071        6.2730309299
  H        36.3816882893       34.2087055238        9.4997723837
  H        40.5786815109       33.2020075273        5.1539456033
  H        17.4721837342        1.9473246334        7.9740458411
  H        29.1850230585       19.5067568496       12.5710615721
  H        28.5734270536       18.8164424944        3.8240085695
  H        31.2622885234       15.6894081781       12.6393336274
  H        28.0115844235       17.9712062842       14.4246916870
  H        29.3935904483       15.6510160320       14.6638478532
  H        32.4610015413       17.6370697231        1.4254556182
  H        18.8539424939        0.8690051265       12.3354139053
  H        40.5276915888       35.2290112469        3.9519381636
  H        42.3248573834       34.4195136076        3.5904322113
  H        22.0878869854        0.6920379086       12.3509904373
  H        11.5968100405       18.7126407936       12.3823754795
  H        52.2648487348       18.4312917030        3.6778000592
  H        49.2552091261       16.4763014851        3.5838922708
  H        10.1500463477       15.7982605492       12.2925596635
  H        50.8499213467       17.6928165177        3.9539946232
  H        10.0458684291       17.3947099814       12.0519039430
  H        20.2157594087        0.0024701063       12.0418573056
  H        39.1834395107       36.1243762624        3.6865313006
 Ni        30.4349210768       18.0628351843        2.5798809507
 Ni        31.0694520391       16.4791655857        0.0024981313
 Ni        29.5520440525       18.3290197484        0.2543009623
 Ni        30.0618057586       17.4954602875       13.3192977885
  O        10.6497122902       14.3652566833        5.4857837200
  O        12.6129869236       14.6573976051        6.5838560705
  O        49.1472838036       16.8459724734        7.9895692717
  O        50.3500032620       20.9363275867        5.6482936750
  O        48.3483832167       20.5931613229        6.6659945424
  O        11.0507172915       17.0541011314        6.5006278190
  O        50.3206523352       20.8816671471       10.4068672633
  O        48.3465783904       20.5865709675        9.3269741638
  O        49.5431336645       18.2484022366       10.0682359900
  O        12.3585857895       18.6246643891        7.9997691520
  O        48.6931281073       14.1487757809        6.7512001166
  O         8.2097267940       14.2105548133        9.3226226557
  O        10.7352189957       14.5067996575       10.6643603342
  O        12.5716978890       14.5827355266        9.3285814388
  O        22.8463680634        2.0461224146        5.4862012934
  O        21.6092702599        3.5952420648        6.5865641026
  O        42.0579918752       34.1374608531        7.9784953130
  O        37.9808855442       33.1333025220        5.5718459870
  O        39.2182340078       31.5750263510        6.6666505071
  O        20.3086257309        1.0400200203        6.5022044757
  O        38.0237978250       33.1835949375       10.4165113222
  O        39.2177432655       31.5823183552        9.3283422999
  O        40.6521418842       33.7692479295       10.0600297524
  O        18.2568142263        1.3760485363        7.9967177630
  O        44.6221600559       35.1006117500        6.7586552087
  O        24.2053111189        0.0001037893        9.3206850023
  O        22.7530005588        2.0573962138       10.5844666056
  O        21.6256151747        3.5974363796        9.3456120142
  O        27.4499303898       18.6873319785        5.4950702966
  O        26.6935055165       16.9047116772        6.6744163697
  O        30.6345204391       19.3402856125        8.0181735957
  O        33.4453926333       16.3199857343        5.5723576320
  O        34.2217677005       18.1037301654        6.7416501382
  O        29.5399113300       17.0106848413        6.5823179918
  O        33.5544800829       16.3405487447       10.4184867667
  O        34.2956301268       18.2402499357        9.4080743163
  O        31.6444057556       18.3209148937       10.1616653337
  O        30.3041737715       15.1092677340        8.1548261244
  O        28.5463180035       21.0244820773        6.8353829415
  O        28.5158243583       20.9489124178        9.4039614738
  O        27.4582594116       18.6794522018       10.6595424167
  O        26.6912559246       16.9276104682        9.4190218631
  O        13.1471009694       18.6937111881       10.5863992250
  O        13.9183080571       16.9160876123        9.4043234241
  O        50.5951921048       19.3501045303        8.0205842639
  O        47.6814408834       16.3277430789       10.4180241458
  O        46.9486821148       18.1754110045        9.3266249987
  O        11.0686788176       17.0159959358        9.4896191451
  O        47.6730081701       16.3361933207        5.6520019046
  O        46.9229622868       18.2354752226        6.6617225740
  O        49.5681497770       18.3177031513        5.9822116508
  O        10.3184482829       15.1003066241        7.9971168479
  O        52.6707064367       21.0279823059        9.2418043279
  O        12.1467724688       20.8913242066        6.6733030522
  O        13.1048706825       18.6142229046        5.3262813135
  O        13.9548052397       16.9861960739        6.6657416674
  O        29.9852038128       14.4387495214       10.7426320156
  O        28.0853385213       14.6500261256        9.5025558523
  O        32.0723174584       16.8540732118        8.1333017055
  O        30.9644282330       20.9531825466       10.4059750930
  O        32.9432003731       20.6025143111        9.3367987939
  O        29.5614693654       17.0747236261        9.5793672441
  O        30.8402092729       20.8762084725        5.6542617454
  O        32.8394474352       20.5115696142        6.6588318910
  O        31.5618387740       18.1664651404        5.8304633711
  O        28.2579979463       18.6292850564        8.0683841929
  O        32.4928630453       14.2120910687        9.4102436036
  O        32.4057063871       14.2091453878        6.8397151483
  O        29.9883957359       14.5817047077        5.4129028200
  O        28.1308557542       14.5845301182        6.7349912767
  O        17.8893490066        1.9665549244       10.6626781181
  O        18.9565038419        3.5270738476        9.4077613640
  O        39.1685220605       34.1385682477        7.9971356417
  O        43.2801545924       33.0589371714       10.3316717967
  O        42.0343114500       31.5064825219        9.2415987914
  O        20.3179122935        1.0372119585        9.4795898125
  O        43.2761016546       33.1828042791        5.5749506197
  O        42.0052314195       31.5842162105        6.5829903244
  O        40.5789573408       33.7752403952        5.9356806699
  O        22.3676777734        1.3853722623        7.9976140789
  O        36.6729810038       35.0996053011        9.2335150647
  O        16.4459338817        0.0639842971        6.6680715015
  O        17.9364869773        2.0432493712        5.3265483495
  O        18.9195885424        3.5931199476        6.6658854570
  O        29.5274929765       18.9073252771        4.0057868985
  O        29.8246583770       18.9718719581       12.0653870773
  O        31.2494324161       16.4959214144       12.0841737295
  O        31.6972181064       17.0748285785        1.6618110469
  O        30.2822996579       15.9641646477       14.4073532311
  O        28.8854169548       18.3942889453       14.5009546516
  O        39.4567040308       35.2437597049        4.0020350675
  O        19.1421057618        0.0047509020       11.9903773588
  O        41.9696630140       35.1728767201        4.0872563135
  O        21.6912075446       -0.0694476626       11.8956711286
  O        51.3648147160       18.6144128702        4.0053064084
  O        10.7509644108       18.7471657087       11.9049502249
  O        50.0793438244       16.4127338072        4.0917289409
  O         9.5241366352       16.4831671391       11.9912154342
 Zr         9.2964708012       16.0530953082        6.1819930698
 Zr        49.8356505206       16.0069750246        9.7466697585
 Zr        22.0734388648        0.0310044209        6.1883330105
 Zr        42.4609263562       35.1535522915        9.8004824823
 Zr        29.5465338393       19.0482548724        6.2263081950
 Zr        29.5606642665       19.1721282118        9.8879231015
 Zr        11.0373331099       19.0524332914        9.8277305142
 Zr        11.0430485852       19.1552653201        6.2512912152
 Zr        31.3049643933       16.1028782519        9.9857516296
 Zr        31.3927734165       16.0005290655        6.4340756095
 Zr        18.6014566703       -0.0014944963        9.7635281756
 Zr        18.5067700327       -0.0081654368        6.2137254884
 Zr        12.3009001516       16.3232603743        7.9907286044
 Zr        48.6150104287       18.8326450137        8.0099675742
 Zr        20.3170677318        2.4749461492        7.9898633712
 Zr        40.6430747355       32.6867566184        7.9781540041
 Zr        28.3235523617       16.3264259249        8.0979687342
 Zr        32.5929483821       18.8482120436        8.0887458404
  H        29.1533288907       17.6903341630        1.5861321678
  H        32.2087148918       15.5827906990       -0.2099426244
