     569
 i =      190, E =     -4729.5095905570
  C        11.8584546341       14.0534366225        5.7416052182
  C        12.4559098522       12.8904233144        5.0232396713
  C        11.7043990874       12.1718853910        4.0811600237
  C        12.2807419908       11.1096649572        3.3887828684
  C        13.6211285771       10.7394421979        3.6169081972
  C        14.3540866618       11.4425808410        4.5908541418
  C        13.7812049181       12.5075323934        5.2824016979
  C        14.2606768542        9.6487873808        2.8435215444
  C        14.2560888504        9.6567365043        1.4218155959
  C        13.7430776427       10.7589098578        0.6678739937
  C        49.1264265702       21.2334475930        5.8797976224
  C        48.5495191731       22.4012219035        5.1527202336
  C        49.2996132041       23.0686821547        4.1718502135
  C        48.7326366931       24.1077150921        3.4385698347
  C        47.4019867562       24.5091226836        3.6669882750
  C        46.6709355456       23.8600953104        4.6803369736
  C        47.2334370212       22.8152716989        5.4097727941
  C        46.7718083433       25.5868137654        2.8696725046
  C        46.7610142037       25.5572833048        1.4479106651
  C        47.2610380278       24.4422277039        0.7044245368
  C        14.8599558771        8.5703364474        0.7085782064
  C        14.8912717402        8.5967314594        3.5201848139
  C        49.1128214717       21.2034313598       10.1453427833
  C        48.5274125272       22.3647521039       10.8723907944
  C        49.2666915920       23.0256469639       11.8651630820
  C        48.6903203949       24.0601612713       12.5966200829
  C        47.3597998690       24.4566954417       12.3585584596
  C        46.6393094555       23.8115958752       11.3352120984
  C        47.2129119503       22.7757243256       10.6034207614
  C        46.7213700967       25.5316646459       13.1495797783
  C        46.7332647301       25.5280972774       14.5712783250
  C        47.2487889040       24.4289294913       15.3276638299
  C        40.6141851496       17.0802662451       15.3150029492
  C        40.6300301654       17.1030984431       12.5047436710
  C        11.8826784047       14.0863927137       10.2855156626
  C        12.4717747195       12.9103311489       10.9896066077
  C        11.7143287136       12.1775152239       11.9160688341
  C        12.2807646558       11.0949518771       12.5844591878
  C        13.6193831880       10.7207358482       12.3522692620
  C        14.3572041012       11.4358073693       11.3909755911
  C        13.7919305097       12.5170817503       10.7183281978
  C        14.2530001256        9.6240288498       13.1227261798
  C        14.2520384202        9.6442060748       14.5445693427
  C        13.7424053326       10.7532830178       15.2916169995
  C        22.5102411428        3.2434314664        5.7529965213
  C        23.2228823943        4.3486749945        5.0517344036
  C        24.2198248983        4.0680663150        4.1059109239
  C        24.8453829341        5.1073659232        3.4224911510
  C        24.4891475067        6.4487011486        3.6652953458
  C        23.5199416641        6.7209947712        4.6477405845
  C        22.8898439394        5.6834255661        5.3295756471
  C        25.0956016167        7.5541379428        2.8897009849
  C        25.0719591274        7.5454992359        1.4682977356
  C        24.3680470436        6.5474852290        0.7221299985
  C        38.2979140329       31.9273239071        5.8519200348
  C        37.5571363302       30.8380588585        5.1514733014
  C        36.5915782405       31.1432488742        4.1795258955
  C        35.9627675789       30.1241570273        3.4691637705
  C        36.2839234739       28.7731218850        3.7069317732
  C        37.2181614884       28.4754788118        4.7172133549
  C        37.8509621628       29.4934282730        5.4270503041
  C        35.6765544332       27.6834913598        2.9076477385
  C        35.7173976402       27.6984976731        1.4859262825
  C        36.4284645342       28.7006370342        0.7530307845
  C        25.7003047320        8.6124390495        0.7486978588
  C        25.6906955481        8.6296667195        3.5607957203
  C        38.3301954840       31.9600221462       10.1608779443
  C        37.6140704069       30.8869863702       10.9105130406
  C        36.6825990239       31.1960911720       11.9140268877
  C        36.0734387349       30.1789873733       12.6471919195
  C        36.3801497547       28.8251742625       12.4019026257
  C        37.2923076641       28.5260980907       11.3708559236
  C        37.9033759681       29.5396594021       10.6387410422
  C        35.7662100058       27.7261721226       13.1842663713
  C        35.7626954401       27.7207028594       14.6070903664
  C        36.4488809732       28.7122330755       15.3763711698
  C        46.1352677223       26.6207399440       15.2814031237
  C        46.0872577802       26.5799165846       12.4735172992
  C        22.4601597059        3.2549391028       10.2568154405
  C        23.1541565081        4.3635009689       10.9795313782
  C        24.1578535213        4.0767159216       11.9181769945
  C        24.7860772444        5.1065492762       12.6140180712
  C        24.4302636586        6.4520035504       12.3931653364
  C        23.4494824500        6.7322236635       11.4231326230
  C        22.8166093542        5.7025328924       10.7278301442
  C        25.0620272394        7.5489747840       13.1672929196
  C        25.0552627712        7.5422097525       14.5898022666
  C        24.3581317774        6.5471849591       15.3453633722
  C        26.5444236522       17.8499051101        5.7952751126
  C        25.2426056964       17.8891424461        5.0667579948
  C        24.9775285563       18.9012813169        4.1312842349
  C        23.7728593535       18.9146865895        3.4331790726
  C        22.7995597040       17.9203224894        3.6534959001
  C        23.0582909946       16.9311139145        4.6200593769
  C        24.2662196569       16.9115966355        5.3143771593
  C        21.5352600500       17.9061758488        2.8804882880
  C        21.5468444583       17.9009417961        1.4592444539
  C        22.7589196155       17.7873781324        0.7078956829
  C        34.4156640269       17.2216643452        5.9146462299
  C        35.7065258498       17.1559286172        5.1687497036
  C        35.8971293499       16.1945586928        4.1636554994
  C        37.0806896148       16.1680283482        3.4303060956
  C        38.1060201374       17.1019860219        3.6790628650
  C        37.9161384786       18.0439062762        4.7089622881
  C        36.7312577890       18.0754838605        5.4408107190
  C        39.3616919352       17.1015821912        2.8925851251
  C        39.3575067002       17.1095708700        1.4699781779
  C        38.1512395360       17.2331005725        0.7110330977
  C        20.3055954901       17.9263525586        0.7437009385
  C        20.3086368950       17.8999410571        3.5560303989
  C        34.4352807647       17.2383714878       10.1875527881
  C        35.7364836157       17.1390218792       10.9113827421
  C        35.9417274051       16.1593859300       11.8944943051
  C        37.1327788232       16.1271940027       12.6161304914
  C        38.1484215376       17.0737169566       12.3759875768
  C        37.9490389319       18.0265262498       11.3591248509
  C        36.7574861733       18.0636595524       10.6405188354
  C        39.3982330350       17.0879839472       13.1699083797
  C        39.3765101810       17.1025011334       14.5916879207
  C        38.1600585741       17.2271632719       15.3342224122
  C        35.1262588421       26.6417841689       15.3072968030
  C        35.1811092989       26.6543440641       12.4972498907
  C        26.5703069092       17.8280043142       10.3275929090
  C        25.2563144873       17.8786757378       11.0310883374
  C        24.9933163756       18.8879191501       11.9695565873
  C        23.7749837854       18.9172442557       12.6417508715
  C        22.7918288016       17.9384116916       12.3960327329
  C        23.0490447770       16.9546084912       11.4245010370
  C        24.2683563285       16.9222911318       10.7517460254
  C        21.5257509909       17.9238210968       13.1626165180
  C        21.5417052083       17.9087346416       14.5834171833
  C        22.7559362276       17.7901144771       15.3316139197
  C        14.0455287820       17.8326917896       10.2826775014
  C        15.3533133955       17.8987869551       10.9971145679
  C        15.6139378303       18.9139560201       11.9301725204
  C        16.8255380784       18.9409429429       12.6169443710
  C        17.8069429239       17.9553385659       12.3912258517
  C        17.5526904418       16.9662350127       11.4231849056
  C        16.3407072253       16.9349718311       10.7376831748
  C        19.0719511440       17.9372819628       13.1632984579
  C        19.0604925812       17.9267335820       14.5846342822
  C        17.8472463814       17.8272016944       15.3358685884
  C        46.8016900968       17.2170312208       10.1586929485
  C        45.5091559443       17.1480020109       10.9021378147
  C        45.3054094206       16.1655564179       11.8839837294
  C        44.1220303881       16.1372538055       12.6177673498
  C        43.1099585864       17.0912896250       12.3934002756
  C        43.3109276741       18.0532475622       11.3845288730
  C        44.4951624683       18.0853855975       10.6513575761
  C        41.8552899173       17.0935763617       13.1825507563
  C        41.8609299666       17.0930533522       14.6052914632
  C        43.0695046176       17.1889391871       15.3645834358
  C        20.3023895730       17.9301213599       15.2999721106
  C        20.2987635123       17.9175751123       12.4879011715
  C        46.7819552683       17.2310030039        5.8873952388
  C        45.4773966541       17.1222125158        5.1714739745
  C        45.2579906116       16.1197796693        4.2139575782
  C        44.0686076616       16.0872364603        3.4892135786
  C        43.0664892187       17.0540395215        3.7031880756
  C        43.2767189847       18.0267833463        4.6988807016
  C        44.4672074067       18.0655570302        5.4190237615
  C        41.8181764854       17.0707580233        2.9062415590
  C        41.8418895640       17.0800413252        1.4844423669
  C        43.0605155029       17.1796480239        0.7416581596
  C        46.1530293782       26.6371687606        0.7261519127
  C        46.1617564862       26.6558692123        3.5358002706
  C        14.0372196134       17.8255786256        5.7050862416
  C        15.3484844227       17.8880840975        5.0008608036
  C        15.6208393872       18.9096820266        4.0794606756
  C        16.8433574547       18.9408319839        3.4140845334
  C        17.8164580577       17.9491931468        3.6468071116
  C        17.5494550145       16.9526747568        4.6023068471
  C        16.3292786704       16.9212511393        5.2714811784
  C        19.0823843955       17.9272610955        2.8806794664
  C        19.0660705774       17.9206057922        1.4600405917
  C        17.8500278345       17.8241170817        0.7120057523
  C        28.8067001507       14.0879252801       10.3911352700
  C        28.1953296538       12.9129642959       11.0759648133
  C        28.9246198994       12.1626181967       12.0101184743
  C        28.3267615033       11.0870981430       12.6618072448
  C        26.9859905119       10.7383724203       12.4026998903
  C        26.2782288550       11.4683294281       11.4310863518
  C        26.8738192290       12.5442435262       10.7779473624
  C        26.3185180539        9.6584029310       13.1646490889
  C        26.3108099483        9.6825280867       14.5856013409
  C        26.8240471664       10.7910008956       15.3313105053
  C        32.1764312699       21.2372131490       10.1513384320
  C        32.7723876571       22.4018902013       10.8708856636
  C        32.0237699398       23.0848902561       11.8420599044
  C        32.5951689679       24.1242416121       12.5700039154
  C        33.9316214946       24.5102721970       12.3489414939
  C        34.6626619124       23.8466263780       11.3453079815
  C        34.0937223629       22.8016793064       10.6190660458
  C        34.5596524484       25.5851138896       13.1524703006
  C        34.5410029693       25.5573202973       14.5746448547
  C        34.0283137083       24.4420021154       15.3098138131
  C        25.6963918775        8.6072373002       15.3041598151
  C        25.6778972896        8.6105437270       12.4911256765
  C        32.0743911744       21.2015379917        5.8883862978
  C        32.6508898294       22.3616868147        5.1445474095
  C        31.9225186713       22.9988587957        4.1282001136
  C        32.4966958510       24.0368258798        3.3958368349
  C        33.8132779956       24.4663816605        3.6576902948
  C        34.5226145760       23.8407389116        4.7014846253
  C        33.9538047027       22.7997700901        5.4303370476
  C        34.4554262583       25.5504025058        2.8760869788
  C        34.4870884131       25.5399041386        1.4534031102
  C        34.0018606390       24.4339609821        0.6866062713
  C        40.6041283465       17.0787109149        0.7606475879
  C        40.5866743570       17.0981067164        3.5711451729
  C        28.7283994908       14.0620591559        5.8174010054
  C        28.1221927315       12.9180874491        5.0774753462
  C        28.8697962536       12.2000801011        4.1311323372
  C        28.2891489118       11.1454223275        3.4310354856
  C        26.9469467951       10.7799248891        3.6560123037
  C        26.2163134417       11.4838468904        4.6314980590
  C        26.7939237835       12.5410435413        5.3311409767
  C        26.3079766693        9.6883866247        2.8830276055
  C        26.3074308132        9.6979242907        1.4615704833
  C        26.8207443577       10.7995309649        0.7073731862
  C        18.1352407660        3.1806799653       10.3171361335
  C        17.4056876871        4.2778733019       11.0156838678
  C        16.3902263958        3.9993632608       11.9434257910
  C        15.7423226225        5.0392354769       12.6069367605
  C        16.0937943585        6.3830215923       12.3670179872
  C        17.0828531344        6.6527045746       11.4029602648
  C        17.7320927850        5.6154555448       10.7379090403
  C        15.4694476414        7.4906871472       13.1300830376
  C        15.4849374987        7.4901507446       14.5517964149
  C        16.1865486438        6.4965863458       15.3049809692
  C        42.9457065468       31.8593804647       10.0728219389
  C        43.6459547466       30.7717244166       10.8167831760
  C        44.5917246279       31.0929776137       11.8026526914
  C        45.1973334502       30.0873817628       12.5503037214
  C        44.8705688722       28.7343703878       12.3356191124
  C        43.9444371897       28.4200978981       11.3226747909
  C        43.3357118853       29.4252881170       10.5746358806
  C        45.4881548454       27.6550806137       13.1388038158
  C        45.4924810518       27.6808167118       14.5604894380
  C        44.8054174768       28.6888912681       15.3070969312
  C        14.8560776009        8.5627220447       15.2641400947
  C        14.8740150121        8.5623566488       12.4514721950
  C        42.9463467512       31.9614401331        5.8089802632
  C        43.6914070032       30.8853297579        5.0954244342
  C        44.6563216407       31.1911803362        4.1234122816
  C        45.2777309815       30.1715717811        3.4056395323
  C        44.9535543441       28.8212937866        3.6429768903
  C        44.0196313358       28.5236649255        4.6533491794
  C        43.3914708369       29.5404602297        5.3655661367
  C        45.5625933569       27.7239099472        2.8577187691
  C        45.5330293419       27.7173113040        1.4364265984
  C        44.8267083330       28.7075495053        0.6834890091
  C        35.1008673227       26.6317000368        0.7530131310
  C        35.0624513577       26.6099966922        3.5632706446
  C        18.1483685178        3.2467533133        5.7066553958
  C        17.4295870662        4.3435895453        4.9974112888
  C        16.4146243053        4.0522257275        4.0736114471
  C        15.7662482334        5.0828117799        3.3981887365
  C        16.1205879377        6.4280950864        3.6211249441
  C        17.1116465015        6.7115536416        4.5786972275
  C        17.7593630689        5.6826941353        5.2584988586
  C        15.4901573738        7.5238024722        2.8486335242
  C        15.4961240543        7.5072123716        1.4274920589
  C        16.1928422881        6.5054781489        0.6807952249
  H        10.6724054351       12.4663338616        3.9038534958
  H        11.6945295743       10.5514628246        2.6619658424
  H        15.3909402030       11.1675745637        4.7729769119
  H        14.3504317789       13.0703172353        6.0183599907
  H        13.3761890139       11.6311045311        1.2011547682
  H        50.3223999239       22.7488115948        3.9872810322
  H        49.3191329087       24.6230778049        2.6810684030
  H        45.6413276351       24.1606251881        4.8632722211
  H        46.6623170425       22.2899013689        6.1717020437
  H        47.6295305642       23.5758266492        1.2461011326
  H        14.8714056113        8.5878899225        4.6084881306
  H        50.2868013565       22.7029498619       12.0599726522
  H        49.2687106207       24.5757566874       13.3600291310
  H        45.6097942928       24.1085806103       11.1463424601
  H        46.6519773081       22.2533813715        9.8320621547
  H        47.6075353328       23.5517914961       14.7967768962
  H        40.6357243254       17.0703215657       11.4168711830
  H        48.6869061443       14.0951253174        7.7999361262
  H        10.6810074664       12.4669578001       12.0937603997
  H        11.6889952582       10.5248379120       13.2974008171
  H        15.3924483217       11.1574769483       11.2046656222
  H        14.3641582289       13.0861087562        9.9894430933
  H        13.3756059446       11.6218925925       14.7529533118
  H        47.9299958970       14.2182326090        9.7107760353
  H        47.7798653845       14.3736808380        6.4951419487
  H        49.0819051365       18.5519694185       10.8669365590
  H        10.4153396059       14.1343413532        7.9988450345
  H        24.4818737992        3.0294168530        3.9169754804
  H        25.6189728086        4.8903567136        2.6890955062
  H        23.2376325741        7.7538872382        4.8406959115
  H        22.1192209407        5.8831413474        6.0700922829
  H        23.8041414629        5.7926754555        1.2623996167
  H        36.3587680728       32.1869701795        3.9820557777
  H        35.2152252377       30.3660540513        2.7168195847
  H        37.4740770230       27.4356358229        4.9099631965
  H        38.5978627547       29.2693470010        6.1850400573
  H        36.9891594314       29.4509625878        1.3027715075
  H        25.7200589692        8.6155409313        4.6488078095
  H        36.4550025197       32.2402830888       12.1163621595
  H        35.3447050236       30.4265457499       13.4159183628
  H        37.5433287634       27.4859247355       11.1738163149
  H        38.6280452966       29.3111537707        9.8609822428
  H        37.0261570836       29.4710283454       14.8558612185
  H        46.1084351952       26.5871800429       11.3854764026
  H        44.6680892438       35.1160260880        7.8139579809
  H        24.4360769130        3.0383688801       12.0837308916
  H        25.5681198641        4.8780107806       13.3349518335
  H        23.1636232989        7.7667851292       11.2443690652
  H        22.0433818313        5.9149672311        9.9931402711
  H        23.7860136814        5.7926300552       14.8133238087
  H        44.9532378171       34.3898482836        9.6948268437
  H        44.9013374308       34.2065878929        6.4906449772
  H        40.6656492166       33.2084690819       10.8529891198
  H        23.1503210011        1.9573602177        8.0051956490
  H        25.7252750071       19.6739317632        3.9684796566
  H        23.5687828824       19.7035280294        2.7123469343
  H        22.3144165489       16.1567565307        4.7959959060
  H        24.4818579830       16.1360718897        6.0455732931
  H        23.6958182235       17.6662153264        1.2440021938
  H        35.1014632469       15.4802680229        3.9643284912
  H        37.2255067440       15.4136627529        2.6601120468
  H        38.6974284575       18.7750311482        4.9062901314
  H        36.5706456234       18.8181602197        6.2189975362
  H        37.2117921443       17.3647655682        1.2400183725
  H        20.3087023025       17.9277954517        4.6441776652
  H        35.1499841030       15.4404836485       12.0922306215
  H        37.2883304440       15.3644395081       13.3759620758
  H        38.7250386055       18.7646395144       11.1671403765
  H        36.5846234813       18.8184592709        9.8771856207
  H        37.2275278962       17.3534056368       14.7917138957
  H        35.1621541076       26.6795810184       11.4093185652
  H        28.5069070739       21.0864298009        7.9787150195
  H        25.7553657300       19.6425004193       12.1512500334
  H        23.5685565034       19.7032856637       13.3649538495
  H        22.2962408082       16.1933500219       11.2304174452
  H        24.4846033855       16.1518720223       10.0155405164
  H        23.6907545256       17.6703967602       14.7922497602
  H        29.0225537086       21.7115879934        9.7555884449
  H        29.1587016565       21.7334271082        6.6083906005
  H        32.0638523427       18.5500857507       11.0030952715
  H        27.3460576168       19.0615209533        8.0930945714
  H        14.8560186233       19.6748067877       12.1024649137
  H        17.0261840226       19.7314743477       13.3368891023
  H        18.3026908644       16.1991262016       11.2417610404
  H        16.1289999157       16.1585890033       10.0064177641
  H        16.9081742449       17.7207777958       14.8007890673
  H        46.0918409196       15.4367947577       12.0657723433
  H        43.9672420948       15.3669444083       13.3701118758
  H        42.5389845486       18.7987871741       11.2051711187
  H        44.6639030350       18.8431097968        9.8896520847
  H        44.0114518811       17.3019283047       14.8354902990
  H        20.2991719538       17.9504591487       11.3998678236
  H        46.0353944801       15.3795482008        4.0387321765
  H        43.9036298584       15.3083037902        2.7479262190
  H        42.5097613623       18.7788393412        4.8721883670
  H        44.6479435399       18.8360457958        6.1646120704
  H        43.9956938500       17.2842586251        1.2841156583
  H        46.1983552036       26.6822924151        4.6232559135
  H        52.7411495684       21.0626250327        8.1945986643
  H        14.8656498499       19.6725921365        3.9040950199
  H        17.0589198255       19.7361766414        2.7038856844
  H        18.2947796608       16.1813692443        4.7849341742
  H        16.1043446168       16.1423269477        5.9958820354
  H        16.9130052896       17.7152489228        1.2499418947
  H        52.3223541734       21.6736654416        6.2947484096
  H        52.0134836120       21.7026006167        9.4954429942
  H        49.0665578366       18.6076362791        5.2044682782
  H        13.2469696335       19.0164594948        7.9753990203
  H        29.9575636203       12.4371675527       12.2115417663
  H        28.8931190470       10.5040012177       13.3847918153
  H        25.2421590311       11.2081661620       11.2242739458
  H        26.3253498923       13.1299379138       10.0443225796
  H        27.1946938634       11.6564552709       14.7904024380
  H        30.9971533044       22.7759953931       12.0228200594
  H        32.0086841573       24.6510546480       13.3195414421
  H        35.6969576994       24.1341361320       11.1676753752
  H        34.6652097802       22.2650707447        9.8652017781
  H        33.6797487755       23.5711541304       14.7619820452
  H        25.7047993108        8.5930018833       11.4030292921
  H        30.9121958884       22.6559679309        3.9152233439
  H        31.9233974614       24.5306057342        2.6142269689
  H        35.5419738030       24.1581528490        4.9112392495
  H        34.5099155556       22.2962988863        6.2175841420
  H        33.6329144722       23.5566537204        1.2103490598
  H        40.5803735252       17.0645000627        4.6590042533
  H        32.5138032389       14.1458525082        8.2617842303
  H        29.9091679602       12.4748277839        3.9658414851
  H        28.8749987641       10.5846497545        2.7059150721
  H        25.1779119292       11.2129382736        4.8110518204
  H        26.2271683546       13.1011599809        6.0711823277
  H        27.1874954202       11.6719288795        1.2403716266
  H        33.2957809388       14.2034518947        6.4341347561
  H        33.4042126641       14.4193988252        9.6054118751
  H        32.0807124934       18.5593527902        5.1315835222
  H        30.2042610572       14.1522285799        8.0856563075
  H        16.1184890934        2.9628000935       12.1299915009
  H        14.9530261241        4.8196870748       13.3227176373
  H        17.3648193060        7.6856559656       11.2095749235
  H        18.5137966335        5.8181869920       10.0097286310
  H        16.7529753656        5.7391464284       14.7714870042
  H        44.8282355518       32.1400258215       11.9767026743
  H        45.9373706863       30.3410075491       13.3061201762
  H        43.6813746778       27.3780851115       11.1527843473
  H        42.5988394037       29.1899976671        9.8102031752
  H        44.2299473828       29.4365695072       14.7687902457
  H        14.8499868643        8.5454165527       11.3632602906
  H        44.9001496466       32.2338334582        3.9321992258
  H        46.0248675808       30.4127015949        2.6526016371
  H        43.7621986096       27.4839834173        4.8445466376
  H        42.6445745499       29.3176614360        6.1236212197
  H        44.2681059847       29.4703655941        1.2180780828
  H        35.0117160049       26.6234428898        4.6504116322
  H        36.6050715780       35.1338346940        8.1807210661
  H        16.1437625957        3.0126133783        3.9037200118
  H        14.9740737104        4.8558581734        2.6879676368
  H        17.3947874849        7.7470708056        4.7558718459
  H        18.5419152839        5.8931636641        5.9836004060
  H        16.7641905840        5.7551783479        1.2192390624
  H        36.2784812605       34.4821832230        6.2733706314
  H        36.3803136203       34.2091936525        9.4998713167
  H        40.5784613119       33.2012105323        5.1544631692
  H        17.4707227409        1.9467166582        7.9740278188
  H        29.2421744437       19.3799860362       12.6215647654
  H        28.6531284488       19.0887352950        3.8186373214
  H        30.5772307012       15.3702209710        3.8811871301
  H        31.2604564742       15.5663162677       12.5417100426
  H        28.1089393607       17.9744912301       14.3857226310
  H        29.5260530788       15.5522936551       14.6854403119
  H        32.6612429925       17.3534128412        1.7989549024
  H        18.8535097595        0.8689069471       12.3352168436
  H        40.5279857915       35.2291622906        3.9522557547
  H        42.3227778450       34.4177484997        3.5912689029
  H        22.0878681559        0.6921037056       12.3513713987
  H        11.5969500907       18.7125034619       12.3824058326
  H        52.2647028522       18.4314456825        3.6776953995
  H        49.2550799598       16.4765490435        3.5842011248
  H        10.1497012397       15.7983260787       12.2928274254
  H        50.8498680892       17.6927314908        3.9540206034
  H        10.0456547304       17.3946951216       12.0519352323
  H        20.2149168979        0.0022255331       12.0419936924
  H        39.1833827780       36.1242701846        3.6863800898
 Ni        30.5149342034       17.7239469783        3.3273251823
 Ni        31.2463714216       16.3203564642        0.1622355341
 Ni        29.7589261629       18.1139242536        0.2595660763
 Ni        30.1000737921       17.3733683408       13.2432122406
  O        10.6497906582       14.3651862627        5.4857367583
  O        12.6130318698       14.6573181854        6.5838671784
  O        49.1474874575       16.8460176333        7.9896675011
  O        50.3500200682       20.9364425612        5.6483665683
  O        48.3484274368       20.5932288361        6.6660148165
  O        11.0506430771       17.0541286230        6.5005707814
  O        50.3206798533       20.8817376507       10.4068869277
  O        48.3466097776       20.5866436594        9.3270121478
  O        49.5431845991       18.2484621057       10.0683660388
  O        12.3585933008       18.6247176037        7.9997877597
  O        48.6931226045       14.1486885110        6.7512291478
  O         8.2097717165       14.2104389114        9.3225614248
  O        10.7352212116       14.5067584868       10.6644144656
  O        12.5716750131       14.5826696303        9.3285875549
  O        22.8443741122        2.0428223221        5.4873340510
  O        21.6048140476        3.5919330676        6.5900554471
  O        42.0578344587       34.1369506300        7.9789772768
  O        37.9812722503       33.1362501572        5.5723658097
  O        39.2175636275       31.5754207215        6.6659539233
  O        20.3082156183        1.0392317775        6.5018738373
  O        38.0242357517       33.1845621356       10.4158126785
  O        39.2182925847       31.5829172085        9.3275302742
  O        40.6521149056       33.7690098185       10.0602394795
  O        18.2556832036        1.3759220128        7.9967850666
  O        44.6222224980       35.1004987886        6.7587262963
  O        24.2053611193       -0.0000223437        9.3208137608
  O        22.7528698045        2.0573826123       10.5835714694
  O        21.6240909415        3.5957452844        9.3420785340
  O        27.4129389507       18.7491052507        5.5047358451
  O        26.6937019301       16.9245213610        6.6636377293
  O        30.6326992601       19.3477163286        8.0742098396
  O        33.5386201640       16.3297981985        5.6563856852
  O        34.2662172355       18.1800843726        6.7453788854
  O        29.5365197912       17.0247238640        6.5726669222
  O        33.5505124120       16.3382399889       10.4146307034
  O        34.2952396940       18.2386470281        9.4055242261
  O        31.6476002087       18.3116216312       10.1572953512
  O        30.2987130965       15.1183262599        8.0867401893
  O        28.5485435446       21.0348112468        6.9074791144
  O        28.5157719170       20.9542326275        9.4151484594
  O        27.4577971230       18.6791901899       10.6607496016
  O        26.6916995583       16.9281101721        9.4179265622
  O        13.1468360641       18.6938087036       10.5861833297
  O        13.9177839086       16.9158384214        9.4037921310
  O        50.5953473029       19.3502161487        8.0208055340
  O        47.6821274419       16.3272832241       10.4175329600
  O        46.9497072723       18.1755000539        9.3259493883
  O        11.0685110607       17.0161332108        9.4896752528
  O        47.6739306698       16.3360327289        5.6524866401
  O        46.9244380562       18.2358375612        6.6629000666
  O        49.5684791846       18.3177959228        5.9822822552
  O        10.3184574591       15.1002403746        7.9971056583
  O        52.6706846928       21.0280256532        9.2418155103
  O        12.1467891174       20.8914138637        6.6733173520
  O        13.1041855425       18.6141364981        5.3264297685
  O        13.9540976500       16.9857503227        6.6660546217
  O        29.9912764312       14.4381706880       10.7296017482
  O        28.0867972396       14.6529081400        9.4964110431
  O        32.0722354391       16.8600391845        8.0749347532
  O        30.9606007017       20.9470499645       10.4123396868
  O        32.9410454335       20.6016271392        9.3392740505
  O        29.5577565922       17.0727262978        9.5709061649
  O        30.8514457950       20.8949180068        5.6730067568
  O        32.8705344705       20.5753481690        6.6705832726
  O        31.6025580570       18.2440005606        5.9202730341
  O        28.2337693055       18.6692817423        8.0782271813
  O        32.4911104761       14.2139157225        9.3317739940
  O        32.4056229961       14.2144009928        6.8240384787
  O        29.9082816722       14.4342907270        5.4866718476
  O        28.0318813542       14.5843967317        6.7503131389
  O        17.8891374952        1.9664347094       10.6628254147
  O        18.9561345364        3.5270873598        9.4080348623
  O        39.1685482972       34.1385601755        7.9971663394
  O        43.2801820795       33.0588695818       10.3316592758
  O        42.0343527676       31.5064647428        9.2415651274
  O        20.3173148355        1.0362519643        9.4804319172
  O        43.2760886850       33.1824995249        5.5748973884
  O        42.0052223955       31.5840963834        6.5830299007
  O        40.5790384825       33.7749701558        5.9358181408
  O        22.3670780259        1.3843626489        7.9979410467
  O        36.6727817617       35.0996308096        9.2333528373
  O        16.4455719435        0.0640892516        6.6682697847
  O        17.9363857364        2.0432222755        5.3263979877
  O        18.9189176833        3.5930764530        6.6659064392
  O        29.5697371038       19.1262945532        4.1488352416
  O        29.8268838818       18.8346411127       12.0616087529
  O        31.2722902443       16.0511447725        3.9974155008
  O        31.2282361579       16.4146533796       12.0592162307
  O        32.4821607227       16.4004812478        1.6603785138
  O        30.4167389926       15.9057680531       14.5006977711
  O        29.0149361756       18.3181286611       14.4901211141
  O        39.4567930632       35.2437601828        4.0019816777
  O        19.1416247625        0.0045183346       11.9905072103
  O        41.9696741741       35.1727356611        4.0871549509
  O        21.6913843796       -0.0693457048       11.8958937812
  O        51.3646930662       18.6144326895        4.0052825352
  O        10.7510933346       18.7471630535       11.9050316463
  O        50.0793947933       16.4127388147        4.0917401115
  O         9.5239111741       16.4832084256       11.9912318056
 Zr         9.2961437339       16.0530575926        6.1820927325
 Zr        49.8355364403       16.0070711112        9.7466578639
 Zr        22.0729102441        0.0288854329        6.1892326952
 Zr        42.4605676292       35.1526628712        9.8006655505
 Zr        29.5389338972       19.0953669879        6.3033900863
 Zr        29.5666019647       19.1597260023        9.8881178897
 Zr        11.0370987521       19.0526073779        9.8278218432
 Zr        11.0428224387       19.1553813843        6.2514748917
 Zr        31.3235592843       16.0975464766        9.8892063285
 Zr        31.3803493175       16.0000479200        6.2995416874
 Zr        18.6005953811       -0.0025804740        9.7636684797
 Zr        18.5061947129       -0.0086797047        6.2134317283
 Zr        12.3001997852       16.3233098656        7.9908015739
 Zr        48.6151215214       18.8328371508        8.0102465644
 Zr        20.3142218153        2.4722311606        7.9906615796
 Zr        40.6423621459       32.6859409273        7.9781331033
 Zr        28.3216821332       16.3346013882        8.0809480333
 Zr        32.6065442060       18.8421928568        8.0598552219
  H        30.1675233861       18.2669788045        1.8021359777
  H        32.0943504147       16.1208232895        2.5668351407
  H        31.2268791985       17.9114621303       15.8531362218
