     570
 i =      239, E =     -4745.5941905125
  C        11.8584969027       14.0534394935        5.7415333258
  C        12.4559035317       12.8903612349        5.0233560720
  C        11.7043892723       12.1718663146        4.0812161366
  C        12.2807176416       11.1096375320        3.3888534885
  C        13.6210958091       10.7393335838        3.6170013509
  C        14.3540091403       11.4423892883        4.5910579048
  C        13.7811691371       12.5073739293        5.2826002131
  C        14.2606334575        9.6487008245        2.8435550546
  C        14.2558699132        9.6565916968        1.4218415722
  C        13.7427074054       10.7586907420        0.6678947945
  C        49.1265682099       21.2333400925        5.8797074411
  C        48.5497608020       22.4011631093        5.1526593958
  C        49.2998017738       23.0685445850        4.1716897003
  C        48.7328248514       24.1076179200        3.4384615410
  C        47.4022484339       24.5091962265        3.6670355468
  C        46.6712835317       23.8602527675        4.6805033737
  C        47.2337638141       22.8153948044        5.4098932742
  C        46.7720303227       25.5868698094        2.8697273419
  C        46.7611360026       25.5572826844        1.4479659047
  C        47.2610899291       24.4422024496        0.7044671767
  C        14.8597666158        8.5702351917        0.7085519587
  C        14.8914818744        8.5967500919        3.5201716966
  C        49.1128656578       21.2034873095       10.1453224017
  C        48.5274823263       22.3647724271       10.8723981899
  C        49.2667046458       23.0255199801       11.8653180423
  C        48.6903508364       24.0600456880       12.5967700819
  C        47.3598999003       24.4567550775       12.3585756027
  C        46.6394985576       23.8118195445       11.3350541843
  C        47.2130664383       22.7759294890       10.6032642551
  C        46.7214671750       25.5317066759       13.1496208474
  C        46.7333222289       25.5280907981       14.5713226408
  C        47.2487966488       24.4288959047       15.3277050541
  C        40.6159924434       17.0945475572       15.3134425674
  C        40.6302103356       17.1063539229       12.5034284071
  C        11.8826699029       14.0863677682       10.2853455930
  C        12.4716506678       12.9102212463       10.9893224425
  C        11.7143411848       12.1778506578       11.9162660068
  C        12.2806930553       11.0952911414       12.5847153180
  C        13.6191231200       10.7205815380       12.3521509250
  C        14.3567300977       11.4351187782       11.3902689853
  C        13.7915457390       12.5163981169       10.7175557425
  C        14.2527138469        9.6239146309       13.1226736278
  C        14.2516991253        9.6440651806       14.5445299451
  C        13.7419983550       10.7530760843       15.2916356368
  C        22.5128251604        3.2442667008        5.7522436060
  C        23.2302575490        4.3472844861        5.0511115104
  C        24.2266732128        4.0621810460        4.1056212046
  C        24.8586438492        5.0979147089        3.4222739720
  C        24.5104171644        6.4417826719        3.6637281291
  C        23.5415495293        6.7183844692        4.6457607253
  C        22.9048927191        5.6843365468        5.3276841513
  C        25.1234713368        7.5447842559        2.8879992692
  C        25.1005362244        7.5369497880        1.4662485800
  C        24.3949703322        6.5410075382        0.7190494079
  C        38.2973739642       31.9275566986        5.8523270553
  C        37.5543870528       30.8391185851        5.1522256128
  C        36.5894223302       31.1466122642        4.1804500687
  C        35.9578445131       30.1291552761        3.4702486138
  C        36.2755086642       28.7773561292        3.7080407910
  C        37.2092130392       28.4773560150        4.7181214271
  C        37.8448912486       29.4938196004        5.4277743343
  C        35.6654340765       27.6896458391        2.9079876563
  C        35.7080800885       27.7046447391        1.4862775590
  C        36.4223990887       28.7052131659        0.7543432320
  C        25.7306168167        8.6036926716        0.7472931737
  C        25.7229613297        8.6179566946        3.5593163796
  C        38.3309258833       31.9607556227       10.1607648990
  C        37.6155885722       30.8879480623       10.9112751137
  C        36.6832959765       31.1977601398       11.9136482926
  C        36.0742192719       30.1810478432       12.6472162357
  C        36.3822922602       28.8274310539       12.4031458264
  C        37.2959010057       28.5275564325       11.3737671303
  C        37.9067229658       29.5407823757       10.6411632617
  C        35.7669474334       27.7292336273       13.1848668249
  C        35.7594509816       27.7252588195       14.6075568486
  C        36.4454651379       28.7162426151       15.3777414242
  C        46.1353307193       26.6207302235       15.2814634110
  C        46.0874203500       26.5800132028       12.4735732094
  C        22.4633175647        3.2559335275       10.2570742470
  C        23.1634330907        4.3628112067       10.9777590733
  C        24.1687895315        4.0726660023       11.9140280864
  C        24.8034377324        5.0998301462       12.6084092884
  C        24.4533030710        6.4473068325       12.3896355037
  C        23.4710197294        6.7307389232       11.4217618547
  C        22.8318036650        5.7037433563       10.7275659847
  C        25.0906883204        7.5420203122       13.1639885880
  C        25.0842813405        7.5350285195       14.5868924174
  C        24.3852704166        6.5411377652       15.3421912557
  C        26.5707183218       17.8346598835        5.7864125712
  C        25.2697083481       17.9105005841        5.0584129416
  C        25.0103188352       18.9578671118        4.1606842544
  C        23.8021128362       19.0077988731        3.4686546535
  C        22.8232552836       18.0109131848        3.6503155930
  C        23.0787079921       16.9843447565        4.5788862342
  C        24.2860434688       16.9323009888        5.2725713882
  C        21.5572429769       18.0170196461        2.8763679114
  C        21.5638566567       18.0417239597        1.4541428427
  C        22.7762011034       18.0033612529        0.6938316191
  C        34.4190911996       17.2220893280        5.9125293241
  C        35.7095985039       17.1605318786        5.1653406538
  C        35.9096175761       16.1934560467        4.1677940366
  C        37.0928310888       16.1725156281        3.4338287595
  C        38.1095544136       17.1172010541        3.6764626950
  C        37.9115000247       18.0647677711        4.6990816810
  C        36.7261809528       18.0909627354        5.4304767040
  C        39.3655326959       17.1196628289        2.8907892414
  C        39.3607714556       17.1281704253        1.4685661373
  C        38.1539807441       17.2521947087        0.7105359615
  C        20.3179201746       18.0311880262        0.7445241582
  C        20.3320958330       17.9786325666        3.5560072030
  C        34.4357444816       17.2408885170       10.1896374043
  C        35.7367946160       17.1406450261       10.9132396643
  C        35.9396292745       16.1660782275       11.9016913482
  C        37.1310353420       16.1355240528       12.6229346367
  C        38.1487578108       17.0781192259       12.3763723667
  C        37.9516281342       18.0252594660       11.3538449573
  C        36.7598906682       18.0609390625       10.6358606345
  C        39.3988147652       17.0947723908       13.1693743393
  C        39.3779252378       17.1154731113       14.5909570730
  C        38.1619386127       17.2440784452       15.3337716871
  C        35.1191725269       26.6482579206       15.3069205445
  C        35.1837837676       26.6569320842       12.4970410452
  C        26.5685635960       17.8321953038       10.3192829704
  C        25.2421612723       17.9058005728       11.0042598323
  C        24.8981913526       19.0294885217       11.7712521542
  C        23.6833097123       19.0699702003       12.4526900272
  C        22.7820497493       17.9924067532       12.3779239181
  C        23.1134171663       16.8897711506       11.5697225339
  C        24.3297967086       16.8451455144       10.8910055592
  C        21.5183279872       17.9969308867       13.1557340832
  C        21.5426301030       18.0373819017       14.5752333768
  C        22.7654083674       18.0087113561       15.3173009052
  C        14.0439618783       17.8313853589       10.2844177248
  C        15.3486731377       17.8967172733       11.0040646637
  C        15.6028430706       18.9119288774       11.9388065468
  C        16.8125086523       18.9432762089       12.6279688379
  C        17.7989835917       17.9626056228       12.4024736783
  C        17.5499115938       16.9711684016       11.4354887437
  C        16.3391839345       16.9353307761       10.7477410408
  C        19.0665110860       17.9640857486       13.1694815369
  C        19.0627485473       17.9774381967       14.5906633559
  C        17.8554248577       17.8556350954       15.3483367276
  C        46.8019748282       17.2170126222       10.1583433964
  C        45.5092625593       17.1485738340       10.9011475054
  C        45.3054499483       16.1679264547       11.8846851420
  C        44.1218614951       16.1411079166       12.6180986848
  C        43.1099831749       17.0946693109       12.3911813245
  C        43.3108429323       18.0544923183       11.3803592630
  C        44.4953777244       18.0853356588       10.6478041933
  C        41.8557087201       17.0994304623       13.1805940885
  C        41.8623032496       17.1041884776       14.6031871071
  C        43.0713218986       17.2018950482       15.3615716642
  C        20.3072428071       18.0260169040       15.3000849089
  C        20.2903878058       17.9441145847       12.4876046739
  C        46.7826806377       17.2317877699        5.8870760021
  C        45.4787644895       17.1262096821        5.1701294266
  C        45.2586681370       16.1269980657        4.2095668251
  C        44.0697493948       16.0987323791        3.4840318927
  C        43.0693270231       17.0666817772        3.7004708217
  C        43.2801825140       18.0361192926        4.6991445137
  C        44.4701518323       18.0706294359        5.4200188223
  C        41.8213338328       17.0870849475        2.9037783493
  C        41.8447608832       17.0969783451        1.4820738801
  C        43.0631051956       17.1953659864        0.7386629155
  C        46.1531297662       26.6371647535        0.7262175733
  C        46.1620348444       26.6559603325        3.5358638877
  C        14.0423782194       17.8300061844        5.7058788961
  C        15.3580773136       17.9048726898        5.0059531557
  C        15.6239159643       18.9297225381        4.0855450449
  C        16.8481711502       18.9751745923        3.4232066832
  C        17.8339200128       17.9953756872        3.6561251120
  C        17.5734692158       16.9957916084        4.6108975457
  C        16.3507667108       16.9499224959        5.2770872105
  C        19.1012890548       17.9931256761        2.8877096557
  C        19.0814446572       17.9907407105        1.4665733478
  C        17.8647848693       17.8621183329        0.7242648788
  C        28.8142136255       14.0850013621       10.3671216702
  C        28.2170032947       12.9057256029       11.0571309261
  C        28.9481150414       12.1664649467       11.9987547162
  C        28.3550479731       11.0919076640       12.6576251049
  C        27.0175150019       10.7303570896       12.3975231424
  C        26.3095335099       11.4476343595       11.4160206760
  C        26.8992953664       12.5231242496       10.7572317253
  C        26.3521658585        9.6498958058       13.1621989093
  C        26.3428065079        9.6741383564       14.5835997151
  C        26.8527224944       10.7833401447       15.3303558627
  C        32.1800411781       21.2413013944       10.1484451192
  C        32.7744536441       22.4061576542       10.8691204120
  C        32.0201972270       23.1011617809       11.8274365398
  C        32.5912384628       24.1396329574       12.5568111714
  C        33.9328248966       24.5140453325       12.3482295771
  C        34.6703351356       23.8389276681       11.3573392031
  C        34.1017178002       22.7940436223       10.6307479535
  C        34.5588675528       25.5898085241       13.1518496766
  C        34.5338722070       25.5643548223       14.5736464401
  C        34.0148640297       24.4513258388       15.3077688548
  C        25.7272618369        8.5988279057       15.3020984627
  C        25.7098342859        8.6023564580       12.4885960703
  C        32.0726994292       21.1987351118        5.8778395200
  C        32.6416914859       22.3605325537        5.1313748038
  C        31.9092471979       23.0034007984        4.1216710198
  C        32.4805033017       24.0457614700        3.3931431386
  C        33.7979343891       24.4737634698        3.6528090028
  C        34.5113004117       23.8428298245        4.6904026597
  C        33.9452521992       22.7982454608        5.4154962404
  C        34.4393896516       25.5596606252        2.8737689505
  C        34.4723178754       25.5491945231        1.4514300809
  C        33.9849031792       24.4443125792        0.6843817507
  C        40.6068257769       17.0961303488        0.7588137367
  C        40.5901835580       17.1153059642        3.5693362930
  C        28.7478743375       14.0651576041        5.8193675799
  C        28.1425146943       12.9142761308        5.0840547113
  C        28.8838568469       12.2212231220        4.1149539350
  C        28.3099602047       11.1619281121        3.4159324592
  C        26.9780904715       10.7699730439        3.6592849771
  C        26.2540268991       11.4506669298        4.6561826085
  C        26.8267867547       12.5098693354        5.3580019327
  C        26.3408737164        9.6784410620        2.8835708792
  C        26.3372497941        9.6892198317        1.4613095986
  C        26.8470151072       10.7922932045        0.7065417354
  C        18.1354699726        3.1808378166       10.3170489244
  C        17.4058640290        4.2780387457       11.0155981303
  C        16.3901059240        3.9994521656       11.9429891242
  C        15.7421402438        5.0392746401       12.6065217032
  C        16.0938558502        6.3830499805       12.3669529170
  C        17.0832485074        6.6527979879       11.4032683561
  C        17.7326003287        5.6156105248       10.7382031491
  C        15.4693400395        7.4906496616       13.1300233085
  C        15.4847876271        7.4901028262       14.5517465107
  C        16.1864273018        6.4965380023       15.3049071311
  C        42.9457329633       31.8595100874       10.0728260344
  C        43.6460501265       30.7717901615       10.8167835352
  C        44.5916783317       31.0930741946       11.8027667275
  C        45.1973287398       30.0874990843       12.5504358428
  C        44.8706934969       28.7344709055       12.3356891981
  C        43.9447423453       28.4201616172       11.3225868423
  C        43.3359941716       29.4253357633       10.5745305697
  C        45.4882882582       27.6551641034       13.1388623029
  C        45.4925679450       27.6808322954       14.5605550123
  C        44.8055482772       28.6889216838       15.3071834765
  C        14.8558187888        8.5626139074       15.2641007374
  C        14.8738602156        8.5622916953       12.4514288560
  C        42.9463850902       31.9615601892        5.8089658615
  C        43.6915368785       30.8853926492        5.0954498781
  C        44.6564528635       31.1912669581        4.1234602709
  C        45.2779264795       30.1716643134        3.4057121167
  C        44.9537666170       28.8213914669        3.6430510129
  C        44.0198961152       28.5237362571        4.6534614633
  C        43.3916835102       29.5405254396        5.3656544481
  C        45.5628133307       27.7239849939        2.8578056481
  C        45.5331674932       27.7173205107        1.4365109502
  C        44.8268688815       28.7075769463        0.6835754275
  C        35.0901585350       26.6393074352        0.7523467587
  C        35.0479287130       26.6173825579        3.5623958498
  C        18.1487053724        3.2468442803        5.7066648944
  C        17.4300139895        4.3437149933        4.9973277701
  C        16.4145882296        4.0523750734        4.0740257605
  C        15.7661977547        5.0829458858        3.3985874840
  C        16.1209831099        6.4281860112        3.6210422365
  C        17.1126136403        6.7116420433        4.5780122081
  C        17.7603783632        5.6827875396        5.2578121628
  C        15.4903540213        7.5238414554        2.8485841332
  C        15.4961071406        7.5071875902        1.4274370027
  C        16.1927942141        6.5054430817        0.6807252795
  H        10.6724100346       12.4663244061        3.9038498162
  H        11.6944894518       10.5514620192        2.6620291940
  H        15.3908219023       11.1672932371        4.7732915283
  H        14.3504474831       13.0701098422        6.0185558301
  H        13.3757407075       11.6308569520        1.2011653377
  H        50.3225367985       22.7485893245        3.9869805264
  H        49.3192918183       24.6229515540        2.6809180903
  H        45.6417620904       24.1609547155        4.8636287183
  H        46.6626933336       22.2901253064        6.1719249158
  H        47.6295767587       23.5757920772        1.2461332708
  H        14.8718607629        8.5879510373        4.6084797250
  H        50.2867654665       22.7027269401       12.0602180343
  H        49.2687118936       24.5755330305       13.3602735226
  H        45.6100620978       24.1089806840       11.1460339630
  H        46.6521789363       22.2537438577        9.8317634902
  H        47.6075131390       23.5517418175       14.7968254789
  H        40.6352926338       17.0688029985       11.4157130047
  H        48.6868939248       14.0950931881        7.7999976591
  H        10.6811707535       12.4676247799       12.0942760432
  H        11.6889843810       10.5255391845       13.2979953370
  H        15.3917671106       11.1563118481       11.2035093691
  H        14.3636587580       13.0849419709        9.9882012209
  H        13.3751090531       11.6216739799       14.7530202331
  H        47.9300782858       14.2181693171        9.7108633527
  H        47.7797838806       14.3731295902        6.4950467480
  H        49.0823021285       18.5520740308       10.8669377984
  H        10.4155902734       14.1343766448        7.9986761210
  H        24.4839292661        3.0223110078        3.9168263964
  H        25.6317065460        4.8757030627        2.6898557352
  H        23.2647922349        7.7527505759        4.8389677389
  H        22.1351448155        5.8894231969        6.0677275642
  H        23.8295836050        5.7867688920        1.2586137501
  H        36.3593087289       32.1909266512        3.9829945768
  H        35.2109001739       30.3730527420        2.7179524636
  H        37.4626047543       27.4368953038        4.9108884660
  H        38.5913912741       29.2678827430        6.1856351520
  H        36.9835621272       29.4545803583        1.3049239761
  H        25.7538729725        8.6020821057        4.6472757137
  H        36.4550195760       32.2420766782       12.1145182257
  H        35.3445008918       30.4286007682       13.4150007536
  H        37.5480173594       27.4873410591       11.1783849707
  H        38.6324752071       29.3124023974        9.8643895667
  H        37.0251114581       29.4737483150       14.8579700795
  H        46.1086897631       26.5873706424       11.3855345357
  H        44.6682326213       35.1161131133        7.8139999317
  H        24.4435549808        3.0333313911       12.0792028091
  H        25.5862204336        4.8671863174       13.3272514687
  H        23.1887355318        7.7663608309       11.2433903575
  H        22.0578500201        5.9204515467        9.9948264297
  H        23.8119173940        5.7876259475       14.8100491458
  H        44.9536218634       34.3902141086        9.6950464934
  H        44.9016937782       34.2067756432        6.4906534111
  H        40.6660611527       33.2090628347       10.8531510743
  H        23.1506971384        1.9576149052        8.0049421557
  H        25.7651038628       19.7286186706        4.0220048578
  H        23.6027301067       19.8271824705        2.7812695497
  H        22.3318805819       16.2066590780        4.7250336072
  H        24.4961610388       16.1292571889        5.9752360756
  H        23.7230184721       17.9452863356        1.2227846289
  H        35.1228296096       15.4677019260        3.9761244233
  H        37.2453702388       15.4139799373        2.6691830558
  H        38.6867406753       18.8036253014        4.8914657148
  H        36.5585400787       18.8374037677        6.2035044791
  H        37.2155954928       17.3854598723        1.2411169840
  H        20.3374587644       17.9885028491        4.6445075069
  H        35.1456195073       15.4507803248       12.1037881365
  H        37.2855748577       15.3766701361       13.3868738005
  H        38.7296243415       18.7599546170       11.1569278285
  H        36.5881445099       18.8110930518        9.8677324667
  H        37.2296724758       17.3706217109       14.7908272499
  H        35.1691289488       26.6803933700       11.4090172937
  H        28.5070261102       21.0667272011        7.9704036312
  H        25.5932890702       19.8652169396       11.8208536042
  H        23.4225685367       19.9390934914       13.0530139421
  H        22.4211334306       16.0525257275       11.5088775282
  H        24.6039077355       15.9862392610       10.2826058032
  H        23.7035869946       17.9681554529       14.7709655167
  H        29.0284245914       21.7071574895        9.7419319911
  H        29.1637326410       21.7283801249        6.6199739033
  H        32.0377728398       18.5692771387       11.0127855128
  H        27.3737435810       19.0287061060        8.0785943158
  H        14.8418752770       19.6701291540       12.1090680008
  H        17.0092889760       19.7348751653       13.3477703806
  H        18.3032921811       16.2071891156       11.2547884444
  H        16.1316017908       16.1581180388       10.0161348825
  H        16.9170129680       17.7211020299       14.8183999063
  H        46.0920077353       15.4397252986       12.0681644591
  H        43.9667793944       15.3725527246       13.3721724396
  H        42.5387112715       18.7993922015       11.1991988102
  H        44.6645686886       18.8415113724        9.8846811649
  H        44.0129711274       17.3135562153       14.8316629698
  H        20.2855792118       17.9383487481       11.3991504769
  H        46.0349806349       15.3859741084        4.0328419765
  H        43.9036657743       15.3223229277        2.7403640178
  H        42.5142549744       18.7888068847        4.8741908959
  H        44.6519418750       18.8384997503        6.1680064813
  H        43.9985284008       17.3008375045        1.2805594157
  H        46.1987399886       26.6824666734        4.6233143719
  H        52.7410923322       21.0626446505        8.1946108188
  H        14.8615656853       19.6849033505        3.9075692115
  H        17.0548111541       19.7736380513        2.7137924217
  H        18.3259195504       16.2320941460        4.7966640333
  H        16.1343304771       16.1671882003        6.0001684099
  H        16.9332861622       17.7328862039        1.2672559588
  H        52.3222702682       21.6734540203        6.2946277389
  H        52.0133989484       21.7024470537        9.4955034137
  H        49.0665135277       18.6075558406        5.2041492770
  H        13.2469815688       19.0167161547        7.9758043964
  H        29.9791425273       12.4476521377       12.2013083617
  H        28.9239893075       10.5192611923       13.3869054253
  H        25.2769189986       11.1771776011       11.2051122243
  H        26.3494281881       13.0970160263       10.0153092407
  H        27.2227037139       11.6498773444       14.7906120040
  H        30.9874059334       22.8060131507       11.9952434277
  H        32.0005643734       24.6757870803       13.2964032957
  H        35.7086854036       24.1178541131       11.1899489637
  H        34.6773594628       22.2480545780        9.8868150443
  H        33.6648844204       23.5815330708       14.7590763474
  H        25.7371345745        8.5847148826       11.4004738782
  H        30.8971164032       22.6643689248        3.9116707966
  H        31.9042853151       24.5446016152        2.6169037684
  H        35.5312496978       24.1596344350        4.8981503349
  H        34.5033051684       22.2910901040        6.1989031239
  H        33.6122692285       23.5685284200        1.2081188962
  H        40.5839072760       17.0808821202        4.6571607271
  H        32.5031299317       14.1587276730        8.2531615023
  H        29.9102684776       12.5284352509        3.9276542729
  H        28.8932850717       10.6202617221        2.6744540300
  H        25.2234770664       11.1610555480        4.8512463225
  H        26.2639453422       13.0509622202        6.1149879948
  H        27.2110230261       11.6658923423        1.2394973937
  H        33.3050140594       14.2320693459        6.4611483829
  H        33.4071954467       14.4084461336        9.5963133041
  H        32.0818701692       18.5245410465        5.1593878080
  H        30.2200413744       14.1929256187        8.0815015528
  H        16.1182185221        2.9628824201       12.1292871953
  H        14.9526599506        4.8196853615       13.3220865388
  H        17.3654906800        7.6857338408       11.2102136327
  H        18.5146597259        5.8183933803       10.0104102682
  H        16.7528848483        5.7391410596       14.7713793177
  H        44.8280934724       32.1401411631       11.9768603254
  H        45.9372754419       30.3412103469       13.3063154710
  H        43.6818452863       27.3781217556       11.1525985844
  H        42.5993048558       29.1900325856        9.8099223560
  H        44.2301759395       29.4366764522       14.7688788769
  H        14.8499050808        8.5453412249       11.3632144361
  H        44.9002734686       32.2339276331        3.9322567368
  H        46.0250720481       30.4128456416        2.6526976121
  H        43.7625430320       27.4840439977        4.8447044751
  H        42.6448464938       29.3177528442        6.1237755594
  H        44.2683932964       29.4704741424        1.2181818589
  H        34.9966552706       26.6299387901        4.6495299360
  H        36.6052462854       35.1340280196        8.1806265250
  H        16.1433968587        3.0127844594        3.9045391983
  H        14.9736935968        4.8560096156        2.6887279678
  H        17.3962571406        7.7471107300        4.7546740383
  H        18.5434606828        5.8932780747        5.9823441110
  H        16.7642297844        5.7552045824        1.2191702402
  H        36.2790694106       34.4819846429        6.2734230825
  H        36.3811107918       34.2089567705        9.4995210731
  H        40.5786615373       33.2016351098        5.1542233520
  H        17.4712500736        1.9472885154        7.9740434817
  H        29.8792985707       19.8005799026       12.6531329392
  H        28.7875387118       18.6103800165        3.7622008617
  H        31.8981079751       15.9164819964        3.5956682171
  H        31.0291441319       15.6175067679       12.5735274478
  H        27.0831358408       18.5648535175       13.2740020603
  H        29.4545504462       16.0449679259       14.8980542787
  H        32.8459082617       17.7184437504        1.5645156886
  H        28.7021754365       18.6203624424       14.8300296713
  H        18.8530107818        0.8686856991       12.3352592078
  H        40.5282305522       35.2288283452        3.9520762875
  H        42.3232624915       34.4179109470        3.5908154308
  H        22.0875761897        0.6920913534       12.3515127431
  H        11.5966357439       18.7128627730       12.3824422378
  H        52.2646839000       18.4310890314        3.6775059718
  H        49.2552113204       16.4765457413        3.5841300842
  H        10.1503979058       15.7982884817       12.2925161977
  H        50.8497446273       17.6925089917        3.9541078126
  H        10.0459935323       17.3947662746       12.0519116028
  H        20.2142446329        0.0020476317       12.0420338804
  H        39.1838436878       36.1244661570        3.6863590666
 Ni        30.8666625483       17.8193714983        2.8324952461
 Ni        31.2464733553       16.6651342410        0.2510427131
 Ni        30.4284943569       18.7486765774        0.5034502806
 Ni        30.3894718745       17.6506603958       13.4862230992
  O        10.6497976378       14.3651641071        5.4857991753
  O        12.6130783895       14.6574901394        6.5838242064
  O        49.1475984058       16.8459974371        7.9896851301
  O        50.3501242531       20.9361131983        5.6481878558
  O        48.3484798395       20.5932584086        6.6659703612
  O        11.0509456733       17.0540322978        6.5005168430
  O        50.3207267438       20.8816871110       10.4068208269
  O        48.3466371826       20.5866515800        9.3270250263
  O        49.5433021425       18.2484307520       10.0682561095
  O        12.3587723373       18.6245183257        7.9995026185
  O        48.6931385501       14.1487048631        6.7512525951
  O         8.2098082289       14.2104653255        9.3225369683
  O        10.7351916836       14.5067597750       10.6643268844
  O        12.5716833227       14.5827698979        9.3284806757
  O        22.8445782246        2.0426329664        5.4871252322
  O        21.6064543844        3.5927739853        6.5887488375
  O        42.0579513257       34.1372137128        7.9789513664
  O        37.9812731452       33.1364304706        5.5724308937
  O        39.2171742056       31.5749611651        6.6657510362
  O        20.3083915001        1.0395570367        6.5021425094
  O        38.0244270704       33.1849775176       10.4156576801
  O        39.2185111417       31.5830642224        9.3273491217
  O        40.6521580261       33.7692090968       10.0601457883
  O        18.2560588347        1.3762917603        7.9967476090
  O        44.6222001621       35.1005348490        6.7587848643
  O        24.2053686014       -0.0000010368        9.3207858290
  O        22.7532393503        2.0575084356       10.5837867232
  O        21.6251531120        3.5967910711        9.3439170735
  O        27.4704842099       18.7004397157        5.4885677589
  O        26.6937874675       16.9206154612        6.6659223199
  O        30.6264848195       19.3505880238        8.0773287791
  O        33.5421299702       16.3291823058        5.6564202652
  O        34.2702208260       18.1788700311        6.7451088865
  O        29.5634729208       17.0542116465        6.5807722466
  O        33.5501726212       16.3408078590       10.4187072314
  O        34.2974574649       18.2387450387        9.4059127907
  O        31.6546806421       18.3127708617       10.1561095480
  O        30.3176874832       15.1591561807        8.0886335416
  O        28.5494368794       21.0271794559        6.9027357916
  O        28.5179098169       20.9457983591        9.4168703598
  O        27.4631276201       18.6736653939       10.6741618955
  O        26.6914632682       16.9286676528        9.4195525693
  O        13.1459186542       18.6938044605       10.5859557458
  O        13.9180549401       16.9158404892        9.4040045604
  O        50.5956067555       19.3501542803        8.0201670155
  O        47.6822710357       16.3272771084       10.4175054762
  O        46.9500080510       18.1755486729        9.3257344323
  O        11.0690463084       17.0157828443        9.4894680854
  O        47.6739414465       16.3360850967        5.6524145971
  O        46.9251158623       18.2359255077        6.6633979081
  O        49.5681639297       18.3177018474        5.9821256933
  O        10.3184591545       15.1002559519        7.9970544914
  O        52.6706625389       21.0279517020        9.2417950880
  O        12.1468194884       20.8912806010        6.6732397374
  O        13.1059415643       18.6141650059        5.3258025126
  O        13.9570509280       16.9871024265        6.6641418141
  O        30.0050386357       14.4401352716       10.6753637639
  O        28.0813869769       14.6555734616        9.4912168296
  O        32.0743940737       16.8623651918        8.0825897671
  O        30.9627889817       20.9511960457       10.4115011349
  O        32.9415372705       20.6042675169        9.3385664504
  O        29.5609001086       17.0775353884        9.5829700544
  O        30.8456925319       20.8854120481        5.6607325583
  O        32.8670642035       20.5876585555        6.6682281837
  O        31.6461868500       18.3032149016        6.0004945396
  O        28.2589078392       18.6297849922        8.0753149346
  O        32.4897612052       14.2162231415        9.3298401215
  O        32.4024081972       14.2224155333        6.8208376966
  O        29.9188487808       14.4372513763        5.4935030399
  O        28.0364705462       14.5903292561        6.7507068038
  O        17.8892364727        1.9665755534       10.6627766457
  O        18.9563029667        3.5271730054        9.4079618499
  O        39.1685239156       34.1386048928        7.9970930728
  O        43.2801836120       33.0589089350       10.3316874142
  O        42.0343784895       31.5064531581        9.2415725565
  O        20.3176075474        1.0367142995        9.4800895796
  O        43.2760847774       33.1825208722        5.5748824389
  O        42.0052269901       31.5841233395        6.5830066877
  O        40.5789660718       33.7749147695        5.9359189377
  O        22.3673204302        1.3847269078        7.9979465313
  O        36.6728260181       35.0997063850        9.2333009285
  O        16.4456844645        0.0641984387        6.6682696006
  O        17.9364224289        2.0432986679        5.3264510839
  O        18.9191977264        3.5931540385        6.6659104188
  O        29.7033606256       18.7474053592        4.0659357733
  O        29.9919367612       18.9771383285       12.1468508638
  O        31.2187627960       16.4099437750        4.0914429011
  O        31.1727835572       16.4824585087       12.1465824833
  O        32.2240960525       16.9923132593        1.7632936119
  O        30.4024904895       16.1909929931       14.7144050196
  O        29.6712249396       18.8242621043       14.8115010589
  O        26.9188872031       18.4660701829       14.2333981749
  O        39.4568591545       35.2438496511        4.0020118381
  O        19.1409904311        0.0042494678       11.9905190181
  O        41.9692865149       35.1722145345        4.0870885960
  O        21.6912099098       -0.0693425701       11.8958594523
  O        51.3647817551       18.6142841322        4.0052991915
  O        10.7508472860       18.7472228692       11.9049537007
  O        50.0794760418       16.4127672965        4.0917489723
  O         9.5244471367       16.4831268058       11.9911480064
 Zr         9.2960658002       16.0529499124        6.1822172593
 Zr        49.8358316158       16.0068969531        9.7466504174
 Zr        22.0731990417        0.0296912830        6.1889864654
 Zr        42.4608092728       35.1534203086        9.8009405800
 Zr        29.5745519341       19.0812419856        6.2694858177
 Zr        29.5880531489       19.1577398902        9.8994227117
 Zr        11.0368362623       19.0524090236        9.8274689412
 Zr        11.0431311969       19.1551643353        6.2510519336
 Zr        31.3348161498       16.1113148026        9.9056273260
 Zr        31.3668897152       16.0250569959        6.2721236391
 Zr        18.6010548240       -0.0017857869        9.7632717091
 Zr        18.5066156922       -0.0079960075        6.2135166634
 Zr        12.3008838899       16.3233719888        7.9899939021
 Zr        48.6152780822       18.8329148953        8.0101656927
 Zr        20.3158090246        2.4736562580        7.9906283689
 Zr        40.6428935261       32.6865923915        7.9779782032
 Zr        28.3378272314       16.3327886200        8.0732131334
 Zr        32.6069767697       18.8358424024        8.0548967189
  H        26.3217744217       17.7029660871       14.2908562028
  H        31.0546649982       19.1291487521        1.9093623207
