     570
 i =      179, E =     -4745.5948314417
  C        11.8584147297       14.0533000343        5.7416501524
  C        12.4558040953       12.8902213902        5.0234946894
  C        11.7044248449       12.1720317597        4.0810212313
  C        12.2807569056       11.1098335264        3.3886214901
  C        13.6209990147       10.7392268189        3.6170782423
  C        14.3537258466       11.4418962503        4.5915635314
  C        13.7808707163       12.5068268560        5.2831561405
  C        14.2606162411        9.6486967653        2.8435957045
  C        14.2559820950        9.6566862302        1.4218867007
  C        13.7428830556       10.7588020916        0.6679216559
  C        49.1264295608       21.2335642903        5.8797703572
  C        48.5495841233       22.4012383713        5.1526447975
  C        49.2996707131       23.0687157869        4.1717640704
  C        48.7326807696       24.1077465592        3.4385103971
  C        47.4020403631       24.5091977146        3.6669698365
  C        46.6710300258       23.8601896530        4.6803613055
  C        47.2335242539       22.8153569786        5.4097700762
  C        46.7719000146       25.5869081252        2.8696701590
  C        46.7610490005       25.5572959495        1.4479169216
  C        47.2610137613       24.4421971177        0.7044536925
  C        14.8599923400        8.5703934653        0.7086034913
  C        14.8913830827        8.5966993587        3.5202179350
  C        49.1129595729       21.2035545194       10.1453351941
  C        48.5275902900       22.3647726319       10.8724519055
  C        49.2668058924       23.0255921400       11.8653326952
  C        48.6903897007       24.0600636889       12.5967998440
  C        47.3599380484       24.4567533624       12.3585615055
  C        46.6395226013       23.8117115773       11.3351194872
  C        47.2131453789       22.7758709832       10.6033164902
  C        46.7214568354       25.5316681133       13.1495980985
  C        46.7333817336       25.5281067724       14.5712921677
  C        47.2487213760       24.4288633512       15.3276934196
  C        40.6292140753       17.1215331961       15.3234640917
  C        40.6531773726       17.1540442551       12.5142493381
  C        11.8826606484       14.0861829376       10.2853713424
  C        12.4716714885       12.9100543510       10.9892485160
  C        11.7144967700       12.1778876904       11.9164622564
  C        12.2809174244       11.0953905080       12.5849338782
  C        13.6192602989       10.7205010975       12.3521300960
  C        14.3566718674       11.4347779901       11.3898919100
  C        13.7914285972       12.5159822505       10.7171335099
  C        14.2529778412        9.6239762687       13.1227128473
  C        14.2519546139        9.6441944491       14.5445655655
  C        13.7422499946       10.7532090628       15.2916639695
  C        22.5130917825        3.2441144933        5.7535622680
  C        23.2310668698        4.3477849788        5.0549280800
  C        24.2279366475        4.0642555008        4.1095606450
  C        24.8590526921        5.1013795968        3.4277225813
  C        24.5092225586        6.4444318797        3.6709989470
  C        23.5407615807        6.7194362761        4.6536813898
  C        22.9048915400        5.6840806753        5.3339970464
  C        25.1186385724        7.5485931428        2.8947879661
  C        25.0897279565        7.5413723163        1.4733295600
  C        24.3832949761        6.5443281052        0.7282966284
  C        38.2975129878       31.9278615539        5.8521895517
  C        37.5543528945       30.8401037337        5.1515144624
  C        36.5879249957       31.1490129972        4.1816606157
  C        35.9552244153       30.1326049282        3.4711090329
  C        36.2732861304       28.7805382154        3.7066242670
  C        37.2091134281       28.4790590672        4.7142998029
  C        37.8457593232       29.4945150274        5.4245179271
  C        35.6608595151       27.6940697941        2.9068833407
  C        35.6997763041       27.7104858385        1.4850862269
  C        36.4129301711       28.7113168189        0.7524372138
  C        25.7149181290        8.6095778722        0.7526682402
  C        25.7194515817        8.6218027522        3.5647117341
  C        38.3301037490       31.9608776927       10.1603776625
  C        37.6123111948       30.8890527543       10.9101258971
  C        36.6788025086       31.2008114983       11.9108568926
  C        36.0668043669       30.1855700669       12.6440306661
  C        36.3731483887       28.8312888584       12.4014463372
  C        37.2878272439       28.5294507541       11.3735427727
  C        37.9015668037       29.5412570756       10.6412516469
  C        35.7555588736       27.7344751164       13.1835752766
  C        35.7478722422       27.7313342561       14.6062951194
  C        36.4344881116       28.7223934304       15.3758081482
  C        46.1353397483       26.6207341855       15.2814035281
  C        46.0874739983       26.5799883177       12.4735144944
  C        22.4609643943        3.2554801275       10.2577696400
  C        23.1557554119        4.3631131684       10.9812556504
  C        24.1574286714        4.0749991321       11.9219354884
  C        24.7866934257        5.1036745449       12.6187227916
  C        24.4345883515        6.4501901708       12.3974001717
  C        23.4558188840        6.7315023847       11.4253948867
  C        22.8218101566        5.7030675751       10.7290757103
  C        25.0681205776        7.5467394037       13.1713011131
  C        25.0642551345        7.5398300724       14.5941437086
  C        24.3693375611        6.5445802219       15.3514737429
  C        26.5706429234       17.8283708326        5.7872384397
  C        25.2678827695       17.8883141173        5.0591943470
  C        25.0063880602       18.9090568648        4.1324472708
  C        23.7959268236       18.9386420600        3.4431760616
  C        22.8148093085       17.9513353225        3.6623451990
  C        23.0716881126       16.9529572343        4.6198456284
  C        24.2837479732       16.9182337281        5.3061454514
  C        21.5468140437       17.9454205683        2.8935841364
  C        21.5548260093       17.9321326530        1.4723758402
  C        22.7655701847       17.8109513886        0.7203307312
  C        34.4230485904       17.2217970485        5.9147440416
  C        35.7138092683       17.1594870366        5.1688552339
  C        35.9120498365       16.1945634686        4.1690122636
  C        37.0943535995       16.1751438845        3.4337351738
  C        38.1113473334       17.1184286099        3.6793283063
  C        37.9154055662       18.0632075793        4.7047252495
  C        36.7306146633       18.0885841705        5.4364929698
  C        39.3678553647       17.1221407423        2.8956729951
  C        39.3669000742       17.1398668641        1.4738146712
  C        38.1623353096       17.2687747651        0.7129713371
  C        20.3125752052       17.9530174057        0.7577787235
  C        20.3208210762       17.9427681539        3.5707696675
  C        34.4718487586       17.2451210887       10.1809899721
  C        35.7758806530       17.1646701141       10.9011082506
  C        35.9864961054       16.1832385170       11.8810344207
  C        37.1722026976       16.1632392707       12.6098648879
  C        38.1755881561       17.1236828143       12.3776113650
  C        37.9719577883       18.0791144602       11.3645510468
  C        36.7839741431       18.1045205144       10.6390790605
  C        39.4207452826       17.1414632652       13.1759867187
  C        39.3939785870       17.1503785724       14.5971672697
  C        38.1749309775       17.2717170009       15.3360943266
  C        35.1072596908       26.6548402096       15.3062188686
  C        35.1714475299       26.6623421586       12.4964426969
  C        26.5731596151       17.8184436774       10.3303154868
  C        25.2633594773       17.8620782837       11.0464006674
  C        24.9950860417       18.8795984302       11.9756413226
  C        23.7762319324       18.9088691776       12.6485327799
  C        22.7965508375       17.9236352836       12.4116105343
  C        23.0614218111       16.9294544562       11.4531319259
  C        24.2813128752       16.8962254032       10.7805460600
  C        21.5280837552       17.9158609230       13.1752945508
  C        21.5450153457       17.9146839437       14.5959715109
  C        22.7596394098       17.8012009258       15.3443131326
  C        14.0463790409       17.8313518102       10.2850106069
  C        15.3537067866       17.8946869750       11.0038902270
  C        15.6158334071       18.9108845126       11.9356715360
  C        16.8264940347       18.9369071951       12.6250128158
  C        17.8071751606       17.9490939351       12.4042174813
  C        17.5507940613       16.9577624583       11.4386506959
  C        16.3398249882       16.9277957967       10.7503059963
  C        19.0733539723       17.9330864899       13.1767548437
  C        19.0640134984       17.9352559004       14.5989031175
  C        17.8522592212       17.8427631685       15.3536643467
  C        46.8057656860       17.2193704742       10.1601637459
  C        45.5181626007       17.1593869549       10.9088758527
  C        45.3149463602       16.1836003542       11.8969775909
  C        44.1350941038       16.1666587588       12.6358688511
  C        43.1287401279       17.1255736788       12.4083925428
  C        43.3297141811       18.0815360122       11.3942789643
  C        44.5101685011       18.1023998012       10.6563207294
  C        41.8754150258       17.1364359261       13.1961049427
  C        41.8778394318       17.1326634861       14.6179942238
  C        43.0849462214       17.2232749970       15.3799826628
  C        20.3067443347       17.9442988052       15.3136336629
  C        20.3005651121       17.9052241537       12.5009507595
  C        46.7831402648       17.2298472658        5.8904237527
  C        45.4775146939       17.1205255971        5.1795421446
  C        45.2580832983       16.1222064537        4.2181347077
  C        44.0684452099       16.0939252937        3.4943845699
  C        43.0678756762       17.0605687139        3.7147868407
  C        43.2768076052       18.0269240198        4.7165815060
  C        44.4677189815       18.0619077538        5.4351697492
  C        41.8225952820       17.0856104705        2.9156263859
  C        41.8509169918       17.1055168839        1.4946246837
  C        43.0721924297       17.2078951253        0.7566155630
  C        46.1531744092       26.6372356750        0.7261526097
  C        46.1618624206       26.6559758974        3.5357956496
  C        14.0392551984       17.8296258559        5.7077764013
  C        15.3541316663       17.9021353423        5.0096794197
  C        15.6233655451       18.9272977030        4.0912092180
  C        16.8480276861       18.9678753916        3.4299582201
  C        17.8268415198       17.9821507953        3.6638697691
  C        17.5634215548       16.9830114329        4.6177969171
  C        16.3409356119       16.9422200239        5.2827301729
  C        19.0930826685       17.9652371546        2.8972140072
  C        19.0743417538       17.9514230333        1.4763442551
  C        17.8574350488       17.8496518463        0.7300221225
  C        28.8122028641       14.0897525761       10.3924927925
  C        28.2024832092       12.9116373500       11.0753400446
  C        28.9289484429       12.1654199744       12.0149713888
  C        28.3310518152       11.0899440075       12.6669314435
  C        26.9923558173       10.7361677440       12.4032772252
  C        26.2883065634       11.4605591022       11.4245516144
  C        26.8840995565       12.5362272028       10.7709326960
  C        26.3244866324        9.6568605968       13.1664303889
  C        26.3174646561        9.6816336381       14.5876874042
  C        26.8274684435       10.7918550236       15.3329600956
  C        32.1784879901       21.2418734365       10.1457298160
  C        32.7720280714       22.4086807597       10.8657718312
  C        32.0165489523       23.0956667163       11.8289010559
  C        32.5837718104       24.1356431002       12.5593003486
  C        33.9226633838       24.5184895947       12.3475616892
  C        34.6609652202       23.8502840209       11.3525587128
  C        34.0960259223       22.8044608205       10.6242381192
  C        34.5464092633       25.5953101170       13.1515292112
  C        34.5215951397       25.5706787658       14.5734411845
  C        34.0035454293       24.4577353969       15.3084449442
  C        25.7064242675        8.6051433557       15.3076796283
  C        25.6833496514        8.6082770463       12.4941473673
  C        32.0725353261       21.2005968037        5.8780740530
  C        32.6403635682       22.3637804022        5.1323375791
  C        31.9050779560       23.0099162566        4.1268310618
  C        32.4749352645       24.0528128165        3.3980176188
  C        33.7938317306       24.4785974418        3.6536970651
  C        34.5099935579       23.8449954830        4.6876769155
  C        33.9452942378       22.7996143070        5.4127994456
  C        34.4336478017       25.5649554514        2.8740145423
  C        34.4628388858       25.5557801121        1.4516052076
  C        33.9742619530       24.4510800605        0.6850733882
  C        40.6152324720       17.1118952970        0.7681178466
  C        40.5900709523       17.1112934319        3.5778304899
  C        28.7506502948       14.0674684567        5.8185664376
  C        28.1423114703       12.9183105946        5.0821003977
  C        28.8800267898       12.2262704579        4.1096402735
  C        28.3034425315       11.1676295312        3.4117262735
  C        26.9727153357       10.7751019035        3.6602910131
  C        26.2522277884       11.4550324536        4.6601176567
  C        26.8276022924       12.5137246600        5.3604209170
  C        26.3329663123        9.6835251913        2.8870777841
  C        26.3226432900        9.6955076984        1.4650204178
  C        26.8272098793       10.8000330524        0.7090775458
  C        18.1354779574        3.1808181172       10.3170695297
  C        17.4060193212        4.2780671001       11.0157699391
  C        16.3901065492        3.9995746672       11.9430010917
  C        15.7422139158        5.0394525119       12.6065315203
  C        16.0942042838        6.3831627641       12.3670863137
  C        17.0838215919        6.6528457016       11.4036351805
  C        17.7330817222        5.6155955573       10.7385820434
  C        15.4697259502        7.4908017410       13.1301189899
  C        15.4851545351        7.4902995082       14.5518311903
  C        16.1868289558        6.4967637215       15.3049926725
  C        42.9457357373       31.8595172359       10.0728212194
  C        43.6460836596       30.7717648213       10.8167409466
  C        44.5918324764       31.0930507496       11.8026072495
  C        45.1975361154       30.0874707555       12.5502297348
  C        44.8707573916       28.7344630727       12.3355961954
  C        43.9447188194       28.4201389164       11.3225855781
  C        43.3359191911       29.4253208421       10.5745773644
  C        45.4883500222       27.6551590165       13.1387767531
  C        45.4926885511       27.6808865450       14.5604722898
  C        44.8056408577       28.6889834391       15.3070703618
  C        14.8561416165        8.5627990371       15.2641575041
  C        14.8741549743        8.5623508204       12.4514986299
  C        42.9462860058       31.9615738689        5.8089110841
  C        43.6914606931       30.8853969568        5.0953876637
  C        44.6564058078       31.1912968343        4.1234422362
  C        45.2778810744       30.1716990745        3.4056838940
  C        44.9536798002       28.8214333829        3.6429757646
  C        44.0196966099       28.5237551998        4.6532719080
  C        43.3914840038       29.5405390927        5.3654760216
  C        45.5627412289       27.7240411415        2.8577232441
  C        45.5331388429       27.7173605595        1.4364291365
  C        44.8269551426       28.7076700775        0.6834616760
  C        35.0798365460       26.6458978934        0.7517493127
  C        35.0446772340       26.6215435183        3.5620023163
  C        18.1486356121        3.2468147576        5.7066447261
  C        17.4299296190        4.3437074307        4.9972840157
  C        16.4144583543        4.0523726977        4.0740516871
  C        15.7660722538        5.0829773405        3.3986505420
  C        16.1209939722        6.4281805407        3.6210624421
  C        17.1126957227        6.7116156091        4.5779545326
  C        17.7604709177        5.6827376513        5.2577023713
  C        15.4903902044        7.5238748524        2.8486352481
  C        15.4963122943        7.5073339796        1.4274874605
  C        16.1931164879        6.5056402733        0.6808105130
  H        10.6725595097       12.4667335138        3.9034075877
  H        11.6946173591       10.5518840489        2.6615534267
  H        15.3903877742       11.1664466468        4.7741268958
  H        14.3499719386       13.0692101945        6.0195146056
  H        13.3758632152       11.6309479488        1.2011850613
  H        50.3224321367       22.7488120004        3.9871330450
  H        49.3191285772       24.6231211026        2.6809808258
  H        45.6414442659       24.1607569579        4.8633462872
  H        46.6623657951       22.2899783668        6.1716624734
  H        47.6293457628       23.5757338351        1.2461408699
  H        14.8716214315        8.5877718788        4.6085231976
  H        50.2868763715       22.7028398635       12.0602314548
  H        49.2687049215       24.5756042453       13.3602993115
  H        45.6100666394       24.1088136714       11.1461125645
  H        46.6522432729       22.2536468609        9.8318522482
  H        47.6073477968       23.5516603469       14.7968349449
  H        40.6615020868       17.1227105328       11.4264304363
  H        48.6868569813       14.0948734459        7.7999321860
  H        10.6813941504       12.4677660728       12.0946810297
  H        11.6893113488       10.5257730496       13.2984019302
  H        15.3916003611       11.1557527454       11.2028579281
  H        14.3633660790       13.0842750926        9.9874515959
  H        13.3753510834       11.6218138347       14.7530721291
  H        47.9301592823       14.2173677549        9.7108793892
  H        47.7798690951       14.3729621167        6.4949135769
  H        49.0831205963       18.5524375500       10.8673129949
  H        10.4155534566       14.1342795557        7.9988325917
  H        24.4856577480        3.0247538135        3.9193909023
  H        25.6320201120        4.8811156069        2.6946244162
  H        23.2635019468        7.7534264432        4.8480882098
  H        22.1349602029        5.8872787233        6.0743306713
  H        23.8209522174        5.7890187484        1.2695016052
  H        36.3574812225       32.1935994227        3.9861214576
  H        35.2068634399       30.3774489740        2.7205376450
  H        37.4630034772       27.4383295177        4.9049625220
  H        38.5935771083       29.2676011402        6.1807887232
  H        36.9748926305       29.4605696197        1.3023410965
  H        25.7549974295        8.6049880882        4.6525101004
  H        36.4518384830       32.2455902600       12.1107736493
  H        35.3362492270       30.4348360554       13.4104732478
  H        37.5385745439       27.4887069083       11.1791736753
  H        38.6280989876       29.3111250258        9.8657057526
  H        37.0137103439       29.4798510030       14.8555011897
  H        46.1086788873       26.5872926787       11.3854737486
  H        44.6682534351       35.1161360526        7.8140025101
  H        24.4337027707        3.0362563809       12.0882820169
  H        25.5672451929        4.8732493354       13.3406644873
  H        23.1724990988        7.7665593324       11.2454870358
  H        22.0504723212        5.9174932738        9.9929568144
  H        23.7956643531        5.7900855401       14.8210484400
  H        44.9537983905       34.3903644148        9.6951523849
  H        44.9016903494       34.2067085043        6.4906985767
  H        40.6657903465       33.2089913234       10.8531527657
  H        23.1504623139        1.9577234396        8.0054919611
  H        25.7608611858       19.6757222646        3.9706782545
  H        23.5937574349       19.7349560975        2.7299343539
  H        22.3231734241       16.1827420292        4.7943077745
  H        24.4977271990       16.1353086082        6.0299207306
  H        23.7023297145       17.6922796666        1.2571692724
  H        35.1245478863       15.4696256268        3.9770002484
  H        37.2463905560       15.4189657721        2.6666480367
  H        38.6919289860       18.8002718712        4.8987037333
  H        36.5633323273       18.8328413183        6.2116805532
  H        37.2222655712       17.3968104940        1.2418593626
  H        20.3222875077       17.9735960103        4.6588582564
  H        35.2011830166       15.4549648328       12.0690590464
  H        37.3344460205       15.4000815267       13.3678692375
  H        38.7408571161       18.8267425797       11.1810276291
  H        36.6037995364       18.8604425508        9.8783871299
  H        37.2446866894       17.4010683504       14.7901863093
  H        35.1569075041       26.6852084068       11.4083997888
  H        28.5071708337       21.0755815628        7.9767675918
  H        25.7481903135       19.6475294675       12.1413797856
  H        23.5639651021       19.7036827463       13.3605564737
  H        22.3128593337       16.1620311594       11.2667281492
  H        24.5018316595       16.1195846465       10.0519697114
  H        23.6922942876       17.6729858875       14.8035711340
  H        29.0126239134       21.7110061178        9.7589743971
  H        29.1621053895       21.7287561736        6.6164136844
  H        32.1301191380       18.5624625720       10.9749010148
  H        27.3706897615       19.0278630675        8.0784910272
  H        14.8598945576       19.6744416695       12.1049537615
  H        17.0268862302       19.7297916142       13.3424663587
  H        18.2984575594       16.1876335264       11.2602294729
  H        16.1284039760       16.1495342967       10.0208749400
  H        16.9120245573       17.7328882078       14.8212448884
  H        46.0984874938       15.4517337562       12.0785932902
  H        43.9775059448       15.4016876941       13.3929886839
  H        42.5606942572       18.8300074282       11.2148442801
  H        44.6815385416       18.8545241188        9.8898057384
  H        44.0281448301       17.3373551171       14.8533409518
  H        20.3004123762       17.9282358773       11.4126414629
  H        46.0359172157       15.3835256120        4.0385036752
  H        43.9021423298       15.3199391125        2.7482731150
  H        42.5093979623       18.7774402395        4.8943110146
  H        44.6499884449       18.8280743346        6.1847340612
  H        44.0056707804       17.3088737042        1.3025960036
  H        46.1984679346       26.6824541312        4.6232491347
  H        52.7409011193       21.0625264908        8.1945603234
  H        14.8635530206       19.6852326511        3.9141812072
  H        17.0600824993       19.7656782972        2.7214270958
  H        18.3130313253       16.2162017365        4.8018848327
  H        16.1190037709       16.1605870971        6.0051926008
  H        16.9209811208       17.7446960506        1.2697094265
  H        52.3216241023       21.6733892057        6.2950344015
  H        52.0129228838       21.7019554912        9.4955841889
  H        49.0660389650       18.6075644069        5.2044771752
  H        13.2468509271       19.0169891925        7.9765794224
  H        29.9601216410       12.4429632248       12.2210686145
  H        28.8960299662       10.5111737610       13.3944414050
  H        25.2545177553       11.1959653932       11.2119691654
  H        26.3381669441       13.1163021137       10.0309608886
  H        27.1939499399       11.6589819451       14.7918675873
  H        30.9866552441       22.7900697359       11.9978016911
  H        31.9923259134       24.6670612260       13.3017172145
  H        35.6973246265       24.1353742452       11.1831802801
  H        34.6724195082       22.2637464635        9.8770001369
  H        33.6549913555       23.5870868672       14.7602357935
  H        25.7096397229        8.5899523475       11.4060350799
  H        30.8915807781       22.6727882070        3.9204987701
  H        31.8967801890       24.5540751603        2.6247816029
  H        35.5310249449       24.1602608947        4.8924703023
  H        34.5054841538       22.2902311142        6.1932443787
  H        33.6029139735       23.5750351083        1.2093061447
  H        40.5804512569       17.0700970652        4.6653749820
  H        32.5075446707       14.1554457883        8.2489038778
  H        29.9061347535       12.5329603175        3.9196481224
  H        28.8838760309       10.6264511385        2.6676094851
  H        25.2226466490       11.1647056838        4.8591774567
  H        26.2680959347       13.0538800937        6.1204859735
  H        27.1918687780       11.6737329141        1.2413602396
  H        33.3062920122       14.2262595532        6.4626252476
  H        33.4078002563       14.4098488847        9.5988971690
  H        32.0920428374       18.5083032701        5.1693026945
  H        30.2309447729       14.1908417258        8.0779824372
  H        16.1180610083        2.9630200839       12.1291688612
  H        14.9525873396        4.8199478695       13.3219573366
  H        17.3663020495        7.6857432212       11.2107468187
  H        18.5153352706        5.8182701615       10.0109664243
  H        16.7533293161        5.7394053410       14.7714530957
  H        44.8282944568       32.1401190599       11.9766441645
  H        45.9375549433       30.3411654125       13.3060460190
  H        43.6816998076       27.3781129120       11.1526971192
  H        42.5991012390       29.1900473848        9.8100831800
  H        44.2303186813       29.4367534494       14.7687289421
  H        14.8501726515        8.5453344611       11.3632900841
  H        44.9002626594       32.2339632349        3.9323059400
  H        46.0250704547       30.4128952622        2.6527191104
  H        43.7622599904       27.4840695093        4.8444376537
  H        42.6445841059       29.3177650932        6.1235351938
  H        44.2684632445       29.4705706515        1.2180421530
  H        34.9966511063       26.6329128247        4.6492994583
  H        36.6052955022       35.1340374275        8.1806669908
  H        16.1432213753        3.0127882274        3.9046058637
  H        14.9735296407        4.8560863630        2.6888167800
  H        17.3964525041        7.7470663904        4.7545357810
  H        18.5436534692        5.8931617788        5.9821417679
  H        16.7645405493        5.7554157075        1.2192947480
  H        36.2791490227       34.4818659290        6.2735462270
  H        36.3814232551       34.2088338175        9.4994699120
  H        40.5785976709       33.2015322690        5.1542565018
  H        17.4711070628        1.9472031282        7.9740479627
  H        28.8363062484       19.1132972136       12.4175128715
  H        28.7631897350       18.6835386151        3.7916010145
  H        31.8904219637       15.9457614018        3.6217221227
  H        31.2201246296       15.5525641262       12.5334795532
  H        26.9665338751       18.0884723595       14.0766321515
  H        29.2420489638       15.7921556320       14.7962429852
  H        32.7401100538       17.5048435058        1.4808222924
  H        30.8688691617       19.7780202765       14.0127641825
  H        18.8537297628        0.8689544312       12.3353855263
  H        40.5282416927       35.2291365339        3.9521771367
  H        42.3235731220       34.4186440027        3.5907536816
  H        22.0876508953        0.6923725541       12.3512326431
  H        11.5967229967       18.7133610895       12.3827160901
  H        52.2644765391       18.4310210842        3.6774124847
  H        49.2557710458       16.4765168512        3.5839671574
  H        10.1507508491       15.7980649040       12.2924554731
  H        50.8495485400       17.6923931123        3.9542002311
  H        10.0462405483       17.3944233961       12.0520433811
  H        20.2151381226        0.0022454730       12.0419390442
  H        39.1838207498       36.1243949040        3.6863175160
 Ni        30.7804292908       17.8119678638        2.8323250930
 Ni        31.0282650039       16.4950477492        0.2510558256
 Ni        30.5630797011       18.7293251338        0.2504183594
 Ni        30.3528908112       17.5730958080       13.4022320970
  O        10.6498051805       14.3651613495        5.4857977335
  O        12.6130200336       14.6574638217        6.5838747115
  O        49.1479052310       16.8460165916        7.9896518480
  O        50.3500585947       20.9363132709        5.6483073628
  O        48.3484527019       20.5933083806        6.6659456632
  O        11.0508931606       17.0541093170        6.5006514995
  O        50.3208921192       20.8816739859       10.4068048863
  O        48.3467383710       20.5867003229        9.3270838444
  O        49.5435083535       18.2484788899       10.0683906791
  O        12.3587560153       18.6245700685        7.9998451580
  O        48.6932082886       14.1486290204        6.7512532669
  O         8.2098666082       14.2103049909        9.3225072379
  O        10.7353289326       14.5067444313       10.6643621413
  O        12.5717655869       14.5827847142        9.3285682175
  O        22.8445258678        2.0426678542        5.4873191474
  O        21.6058971369        3.5924210779        6.5892257757
  O        42.0579300043       34.1371289549        7.9789407592
  O        37.9813377880       33.1368054715        5.5725679256
  O        39.2171060708       31.5749775605        6.6657028318
  O        20.3083479314        1.0394235141        6.5020400931
  O        38.0245059915       33.1852913292       10.4155551381
  O        39.2182344201       31.5829016412        9.3276329433
  O        40.6521721718       33.7691694783       10.0601600076
  O        18.2559628668        1.3762925364        7.9967356620
  O        44.6222353518       35.1004991465        6.7587752422
  O        24.2053772532       -0.0000108551        9.3207776373
  O        22.7529628679        2.0573203871       10.5836799242
  O        21.6245808013        3.5961445110        9.3429016863
  O        27.4654371076       18.6981146732        5.4883580812
  O        26.6951601958       16.9184803845        6.6694299098
  O        30.6334378657       19.3496047587        8.0744410730
  O        33.5469141965       16.3290957220        5.6585613797
  O        34.2727621732       18.1820672556        6.7432497076
  O        29.5656798423       17.0539052797        6.5845029703
  O        33.6094061624       16.3295813071       10.4143003937
  O        34.3030440853       18.2462671557        9.4066190533
  O        31.6526469379       18.3142869006       10.1658973444
  O        30.3215403052       15.1577119814        8.0924066980
  O        28.5496758106       21.0279392862        6.9041245775
  O        28.5131163698       20.9524785142        9.4114700180
  O        27.4569057359       18.6765885226       10.6635328075
  O        26.6916783286       16.9264989124        9.4182170192
  O        13.1481399396       18.6934556273       10.5868495683
  O        13.9189273409       16.9159814424        9.4046495813
  O        50.5956800704       19.3503213082        8.0207583780
  O        47.6838770756       16.3268978162       10.4171953555
  O        46.9516822955       18.1756827542        9.3247731898
  O        11.0691173730       17.0158878139        9.4897811063
  O        47.6751562121       16.3357163672        5.6530251440
  O        46.9262952791       18.2357665308        6.6641704864
  O        49.5682528045       18.3177758134        5.9821217979
  O        10.3184284505       15.1001604062        7.9970595360
  O        52.6707101527       21.0279506708        9.2418280951
  O        12.1467683441       20.8913516548        6.6732663047
  O        13.1044466411       18.6144269425        5.3262990935
  O        13.9551185961       16.9863827147        6.6654895825
  O        29.9952590333       14.4436399672       10.7333258985
  O        28.0899873073       14.6526342997        9.4977302894
  O        32.1344900304       16.8574698097        8.0837205377
  O        30.9647766026       20.9510172048       10.4101471021
  O        32.9444242212       20.6038087068        9.3383614432
  O        29.5679699352       17.0724173266        9.5786907049
  O        30.8460153378       20.8865588466        5.6609315939
  O        32.8679474082       20.5894208890        6.6671236504
  O        31.6479702081       18.3069285398        6.0096397015
  O        28.2568877915       18.6313109401        8.0755398105
  O        32.4909480219       14.2154872231        9.3295209762
  O        32.4041276777       14.2198407751        6.8235032371
  O        29.9212667283       14.4390501954        5.4930262327
  O        28.0385323661       14.5901039548        6.7515223655
  O        17.8891963382        1.9665977535       10.6628496903
  O        18.9562400526        3.5271809145        9.4079722394
  O        39.1685157050       34.1385613265        7.9971248782
  O        43.2801912036       33.0589069047       10.3316706360
  O        42.0343588298       31.5064706661        9.2415915417
  O        20.3175986457        1.0366411387        9.4801536928
  O        43.2760711510       33.1825141729        5.5748847315
  O        42.0052173959       31.5841147138        6.5830203076
  O        40.5790023444       33.7749465273        5.9358506232
  O        22.3672756772        1.3845744971        7.9979292059
  O        36.6728147411       35.0997100150        9.2333257607
  O        16.4456141029        0.0642353601        6.6682733125
  O        17.9363892381        2.0433000130        5.3264242103
  O        18.9190822533        3.5931137007        6.6658793790
  O        29.6901973702       18.7605485775        4.0829657318
  O        29.7387979974       18.9769705637       12.0697783649
  O        31.2605173927       16.4668445682        4.1542522444
  O        31.2964837131       16.4139105143       12.0816125241
  O        32.0666137478       16.8491425188        1.7462392426
  O        30.1725296958       16.0392216626       14.6642567819
  O        31.1698095387       18.9837540093       14.4973720493
  O        27.8776636550       18.3889810380       14.2390866192
  O        39.4569444734       35.2438164957        4.0019793699
  O        19.1416593424        0.0045616477       11.9905191841
  O        41.9697015619       35.1728951054        4.0871813302
  O        21.6913384899       -0.0693014836       11.8959170988
  O        51.3646785780       18.6143050854        4.0052960568
  O        10.7510778168       18.7472974248       11.9049465442
  O        50.0800088460       16.4128168664        4.0916547372
  O         9.5248073905       16.4829734882       11.9912606380
 Zr         9.2959407131       16.0528397063        6.1821793166
 Zr        49.8355012340       16.0067035850        9.7465821277
 Zr        22.0733058836        0.0297646961        6.1889794988
 Zr        42.4608450301       35.1533659135        9.8008217573
 Zr        29.5781053570       19.0840019231        6.2855804034
 Zr        29.5737061659       19.1652646824        9.8878935144
 Zr        11.0368970287       19.0523769690        9.8276169932
 Zr        11.0423584229       19.1553047840        6.2513714548
 Zr        31.3509281948       16.1085443518        9.8889851537
 Zr        31.3777432257       16.0318361721        6.2881996191
 Zr        18.6011201991       -0.0017538498        9.7634611511
 Zr        18.5066233504       -0.0080621936        6.2136054415
 Zr        12.2999727463       16.3231029477        7.9906143303
 Zr        48.6152911624       18.8330539895        8.0101306230
 Zr        20.3155661081        2.4733807745        7.9904723268
 Zr        40.6428267928       32.6866114950        7.9780707097
 Zr        28.3420919337       16.3286301295        8.0787978387
 Zr        32.6173825461       18.8419120017        8.0541350285
  H        27.9835459427       18.4485185819       15.2062991844
  H        30.5616615625       19.0755485306        1.7979798809
