     560
 i =      159, E =     -4340.4166237340
  C        11.8585686677       14.0534073954        5.7415148303
  C        12.4558223421       12.8903503081        5.0233215781
  C        11.7040359203       12.1715745130        4.0816003598
  C        12.2802170424       11.1092586190        3.3892771388
  C        13.6207169531       10.7391514055        3.6170250875
  C        14.3539580076       11.4425605649        4.5905739970
  C        13.7812646204       12.5076322382        5.2820991450
  C        14.2600591091        9.6483947183        2.8435939857
  C        14.2550381825        9.6561760106        1.4218851428
  C        13.7418220971       10.7582477014        0.6679413066
  C        49.1266907036       21.2333515608        5.8796356158
  C        48.5498554475       22.4012236226        5.1526309191
  C        49.2998096460       23.0684576152        4.1715009326
  C        48.7328191554       24.1075266307        3.4382620863
  C        47.4023136499       24.5092272089        3.6670072105
  C        46.6714640502       23.8604852152        4.6806889221
  C        47.2339570552       22.8156269327        5.4100608430
  C        46.7720144442       25.5868498237        2.8697120442
  C        46.7609260185       25.5571516034        1.4479583830
  C        47.2608137922       24.4420313574        0.7044732663
  C        14.8588755339        8.5697914185        0.7085971889
  C        14.8909696804        8.5964893447        3.5202051651
  C        49.1128390662       21.2034244691       10.1452245059
  C        48.5273948099       22.3647194525       10.8723573093
  C        49.2664233673       23.0250745806       11.8656648402
  C        48.6900872419       24.0596045836       12.5971352950
  C        47.3598366011       24.4567231482       12.3585588472
  C        46.6396764055       23.8122490229       11.3345709571
  C        47.2132519001       22.7763959788       10.6027421663
  C        46.7213505609       25.5316147673       13.1496111034
  C        46.7330486891       25.5279045777       14.5713144635
  C        47.2484668625       24.4286904968       15.3277113809
  C        40.6104047635       17.1201252368       15.3005834772
  C        40.6239259984       17.1846113323       12.4899420012
  C        11.8826204346       14.0863098731       10.2854461958
  C        12.4715514276       12.9103103885       10.9895541467
  C        11.7139189590       12.1774794920       11.9158900368
  C        12.2801890274       11.0948543087       12.5842822923
  C        13.6188288454       10.7205349662       12.3522723971
  C        14.3568517804       11.4356576385       11.3911534170
  C        13.7917488870       12.5169950929       10.7184607069
  C        14.2522212710        9.6236966792       13.1227353794
  C        14.2508992023        9.6436745737       14.5445865672
  C        13.7411171459       10.7526472375       15.2916831665
  C        22.5086116117        3.2417885938        5.7524847266
  C        23.2187302729        4.3442382065        5.0482737410
  C        24.2170550106        4.0601027984        4.1051087104
  C        24.8415279469        5.0970899255        3.4181926835
  C        24.4811289416        6.4381589324        3.6548476816
  C        23.5100304611        6.7139548061        4.6343067484
  C        22.8816993723        5.6789284524        5.3204560828
  C        25.0862001409        7.5419101335        2.8783216092
  C        25.0707604262        7.5296689532        1.4573536863
  C        24.3769232811        6.5257779872        0.7101645484
  C        38.3036251849       31.9229361628        5.8409987225
  C        37.5778033361       30.8327960583        5.1190996058
  C        36.6207647397       31.1389855469        4.1384421107
  C        35.9994677847       30.1226118840        3.4154679951
  C        36.3163413201       28.7690815140        3.6478174098
  C        37.2473073796       28.4704958311        4.6619407791
  C        37.8730242542       29.4858434582        5.3838156294
  C        35.7002652256       27.6790235215        2.8502241031
  C        35.7235053563       27.6899082333        1.4269725961
  C        36.4274355198       28.6888607005        0.6834384807
  C        25.6958048591        8.5997408632        0.7397858382
  C        25.6706313310        8.6215251797        3.5507623006
  C        38.3224653477       31.9588192733       10.1515911325
  C        37.5884930324       30.8809858799       10.8788124600
  C        36.6474960482       31.1832835840       11.8753305849
  C        36.0280711756       30.1608826604       12.5924654088
  C        36.3346560585       28.8083351567       12.3395552461
  C        37.2510029438       28.5159526551       11.3106314305
  C        37.8716447725       29.5349941387       10.5934466565
  C        35.7251883554       27.7070781430       13.1235499682
  C        35.7365617199       27.7040548310       14.5466817322
  C        36.4323989575       28.6964818611       15.3065613909
  C        46.1350406774       26.6205395613       15.2814472362
  C        46.0874181338       26.5799977889       12.4735704156
  C        22.4616031305        3.2524976050       10.2539161939
  C        23.1610636475        4.3573281139       10.9726472231
  C        24.1705418202        4.0650040512       11.9032510067
  C        24.8037033406        5.0914601525       12.5984421768
  C        24.4455304023        6.4369179181       12.3842357028
  C        23.4598010964        6.7228040827       11.4212806436
  C        22.8223540225        5.6966829282       10.7260075232
  C        25.0775264313        7.5308510758       13.1595538141
  C        25.0673743887        7.5232508035       14.5812191252
  C        24.3730955866        6.5242252027       15.3336322350
  C        26.5673285999       17.8306111768        5.7837043460
  C        25.2691886978       17.8981517638        5.0544595492
  C        25.0175696988       18.9155879831        4.1208402230
  C        23.8088711828       18.9507938734        3.4295239663
  C        22.8194798875       17.9722982602        3.6514934080
  C        23.0668202626       16.9777138590        4.6161822301
  C        24.2763731600       16.9374000419        5.3057827448
  C        21.5523195553       17.9700330538        2.8815270815
  C        21.5589666437       17.9666195043        1.4594869831
  C        22.7684782322       17.8620401868        0.7023298589
  C        34.4212847323       17.2132632272        5.9018257797
  C        35.7149170652       17.1446530085        5.1647114983
  C        35.9095964556       16.1765414761        4.1667468530
  C        37.0918043664       16.1524165225        3.4311923961
  C        38.1112724057       17.0951831258        3.6708205006
  C        37.9187749358       18.0417935605        4.6957598162
  C        36.7353025455       18.0712567318        5.4298790563
  C        39.3645022115       17.1020122872        2.8797801759
  C        39.3569340495       17.1192510540        1.4570605507
  C        38.1481164157       17.2375353693        0.7007996858
  C        20.3139183375       17.9816387042        0.7492243636
  C        20.3273648827       17.9585998220        3.5617650599
  C        34.4254836713       17.2193455240       10.1714821540
  C        35.7366423761       17.1615449839       10.8818590007
  C        35.9842631618       16.1550853017       11.8294135315
  C        37.1686810493       16.1506506592       12.5606863479
  C        38.1432468099       17.1475971137       12.3606933232
  C        37.9057306593       18.1286518240       11.3791781025
  C        36.7151510297       18.1421075406       10.6547641733
  C        39.3934678208       17.1644291256       13.1564029986
  C        39.3720083809       17.1506107428       14.5783434449
  C        38.1550608244       17.2499401514       15.3236847693
  C        35.1057427469       26.6276254597       15.2549441397
  C        35.1349372347       26.6331297861       12.4437038371
  C        26.5563276540       17.8304053888       10.3217426775
  C        25.2422878619       17.8927276826       11.0187342167
  C        24.9646361830       18.9316468392       11.9200832114
  C        23.7478873259       18.9651465084       12.5947069279
  C        22.7813633344       17.9616673940       12.3881800897
  C        23.0510551324       16.9486061500       11.4505002409
  C        24.2687880760       16.9115580783       10.7752419606
  C        21.5188727735       17.9517812512       13.1619488847
  C        21.5412218472       17.9570038415       14.5828646086
  C        22.7601275218       17.8586390303       15.3259026214
  C        14.0444342166       17.8321098523       10.2842975457
  C        15.3494328077       17.8979142095       11.0029453425
  C        15.6051953805       18.9131341521       11.9374156725
  C        16.8146283579       18.9425588493       12.6274736729
  C        17.7991788458       17.9596235387       12.4035598801
  C        17.5490106112       16.9692347091       11.4355827766
  C        16.3389703628       16.9354239315       10.7467697154
  C        19.0655577328       17.9511053531       13.1729278093
  C        19.0600861945       17.9557439811       14.5944654338
  C        17.8507965317       17.8533342902       15.3515581521
  C        46.8022229295       17.2188966898       10.1570541752
  C        45.5069591244       17.1595862574       10.8962051833
  C        45.2860967140       16.1762820572       11.8729119629
  C        44.0999150359       16.1636007756       12.6026506753
  C        43.1039432220       17.1348330547       12.3793150835
  C        43.3213284296       18.0968754748       11.3744503746
  C        44.5078096652       18.1128791967       10.6451569194
  C        41.8493314516       17.1522908561       13.1671867874
  C        41.8560121623       17.1379560644       14.5894788789
  C        43.0663670642       17.2245503824       15.3471829921
  C        20.3047432833       17.9754505739       15.3050135145
  C        20.2896756581       17.9289031842       12.4925345313
  C        46.7823162622       17.2327963174        5.8840496125
  C        45.4797864828       17.1280185020        5.1616044075
  C        45.2636069146       16.1312152185        4.1973327346
  C        44.0758344294       16.1010720412        3.4692417744
  C        43.0712399363       17.0647030226        3.6862510344
  C        43.2790458349       18.0329431537        4.6869908180
  C        44.4679309259       18.0693121323        5.4104110914
  C        41.8217050732       17.0818279412        2.8898062993
  C        41.8421914378       17.1005274262        1.4679658677
  C        43.0596012091       17.2058296865        0.7240680252
  C        46.1528701659       26.6369974653        0.7261996453
  C        46.1621242631       26.6560052506        3.5358399112
  C        14.0415697471       17.8305404196        5.7070847102
  C        15.3569116356       17.9055963776        5.0091842482
  C        15.6238222508       18.9299515817        4.0886724136
  C        16.8483257347       18.9734349991        3.4270225580
  C        17.8315275636       17.9916057789        3.6609809252
  C        17.5703788196       16.9936039945        4.6171479184
  C        16.3479744226       16.9498888622        5.2829071087
  C        19.0975140100       17.9794161690        2.8921174331
  C        19.0769995766       17.9694575341        1.4709651944
  C        17.8590577996       17.8596306433        0.7277659756
  C        28.7397615273       14.0815339320       10.3558283375
  C        28.1514174643       12.9019609072       11.0441332447
  C        28.8901282625       12.1862719597       11.9975578320
  C        28.3097270596       11.1077941626       12.6593662962
  C        26.9797121970       10.7262927335       12.3917789554
  C        26.2646533253       11.4226414411       11.4007405941
  C        26.8419222001       12.5003916988       10.7364822151
  C        26.3240401300        9.6445586300       13.1585248726
  C        26.3097595221        9.6715813943       14.5791285019
  C        26.8080972109       10.7865813175       15.3247479889
  C        32.1252142574       21.2119523441       10.1040414189
  C        32.7254535506       22.3780070950       10.8176761789
  C        31.9849176322       23.0458733199       11.8068941069
  C        32.5585842115       24.0823743202       12.5384957446
  C        33.8889962692       24.4842013141       12.3053801248
  C        34.6115794726       23.8323962534       11.2864880616
  C        34.0423730216       22.7885815084       10.5575683328
  C        34.5195905084       25.5630910393       13.1055976145
  C        34.5124819946       25.5412785694       14.5292465452
  C        34.0054606632       24.4299799253       15.2740427116
  C        25.6997001334        8.5926289870       15.2960409433
  C        25.6911358153        8.5928666115       12.4843798326
  C        32.0708798402       21.1934622920        5.8306988691
  C        32.6498459224       22.3582443130        5.0970938898
  C        31.9245271092       23.0059293412        4.0842538336
  C        32.5020576254       24.0464867138        3.3585765236
  C        33.8209419788       24.4701688050        3.6207303621
  C        34.5260258283       23.8374450622        4.6635437058
  C        33.9532454688       22.7944392341        5.3871754429
  C        34.4671827908       25.5495362763        2.8343832404
  C        34.4856558357       25.5346100678        1.4109641689
  C        33.9914539906       24.4274593997        0.6514106509
  C        40.6028575212       17.1020076691        0.7461500613
  C        40.5907458920       17.1004711741        3.5562681739
  C        28.6636096466       14.0632936566        5.8174219261
  C        28.0655801706       12.9163993217        5.0789093949
  C        28.8193182893       12.2126360528        4.1269619877
  C        28.2487756475       11.1559237394        3.4234194396
  C        26.9112830366       10.7763183094        3.6506423412
  C        26.1749494874       11.4651877860        4.6324082338
  C        26.7427784934       12.5242622701        5.3364265219
  C        26.2835675705        9.6827789020        2.8744001879
  C        26.2902627206        9.6913113290        1.4532602380
  C        26.7967889775       10.7969438667        0.7006480337
  C        18.1352280181        3.1807925171       10.3171932334
  C        17.4055612462        4.2778857002       11.0157393283
  C        16.3897063358        3.9992708344       11.9430264778
  C        15.7416620636        5.0390893987       12.6064754552
  C        16.0934119451        6.3828802833       12.3669940272
  C        17.0830065837        6.6526597463       11.4035234413
  C        17.7324057548        5.6154790991       10.7384895627
  C        15.4687911823        7.4904223535       13.1300653499
  C        15.4840044762        7.4897404691       14.5517896789
  C        16.1857054904        6.4962069957       15.3049293980
  C        42.9455810543       31.8594139425       10.0727517192
  C        43.6458896698       30.7716363146       10.8167294694
  C        44.5914179259       31.0929724918       11.8027867735
  C        45.1970865035       30.0874356120       12.5505013876
  C        44.8706039177       28.7343938708       12.3356631877
  C        43.9447981592       28.4200386643       11.3224461243
  C        43.3360220802       29.4251751789       10.5743604917
  C        45.4881645024       27.6550826007       13.1388486366
  C        45.4923210423       27.6806709154       14.5605426824
  C        44.8053114355       28.6887688123       15.3071694007
  C        14.8549588750        8.5621957390       15.2641532488
  C        14.8734907090        8.5621678042       12.4514674416
  C        42.9464300207       31.9615757332        5.8089758658
  C        43.6916228003       30.8853619443        5.0954941032
  C        44.6563602225       31.1912654870        4.1233476827
  C        45.2778142243       30.1716609133        3.4055691327
  C        44.9538017830       28.8213835073        3.6430365059
  C        44.0201373306       28.5237290826        4.6536388110
  C        43.3919339601       29.5405030683        5.3658587811
  C        45.5627630887       27.7239459960        2.8577765307
  C        45.5329597883       27.7171876567        1.4364875532
  C        44.8266416268       28.7074380794        0.6835617856
  C        35.0957214381       26.6226773643        0.7018897577
  C        35.0871899533       26.6078741943        3.5128481278
  C        18.1483264976        3.2466587341        5.7065481882
  C        17.4296224182        4.3434028923        4.9971301661
  C        16.4142147314        4.0520559098        4.0738087217
  C        15.7657192995        5.0826188595        3.3984700443
  C        16.1204052797        6.4278785758        3.6210073260
  C        17.1120375456        6.7113630013        4.5779652516
  C        17.7598557911        5.6825055415        5.2576903681
  C        15.4896867719        7.5235036657        2.8486038890
  C        15.4952915283        7.5067792927        1.4274603991
  C        16.1920462943        6.5050885360        0.6807445462
  H        10.6719692797       12.4658855095        3.9045415834
  H        11.6938228855       10.5508755333        2.6627518594
  H        15.3909216261       11.1677438240        4.7723656607
  H        14.3508404321       13.0706418113        6.0176180880
  H        13.3749709616       11.6304654930        1.2012067189
  H        50.3225022475       22.7484046526        3.9866852990
  H        49.3192385688       24.6227515452        2.6806023483
  H        45.6420381779       24.1614037556        4.8639954996
  H        46.6630366640       22.2904764998        6.1722855984
  H        47.6294042126       23.5756705914        1.2461537271
  H        14.8715936726        8.5878486203        4.6085162316
  H        50.2863302699       22.7019529851       12.0608491401
  H        49.2683689620       24.5748280288       13.3608794310
  H        45.6104692273       24.1099278059       11.1451214900
  H        46.6526484097       22.2546516589        9.8307379100
  H        47.6072453975       23.5515527230       14.7968463626
  H        40.6284529364       17.1676708502       11.4016855309
  H        48.6869134371       14.0952825100        7.7999532728
  H        10.6805959746       12.4669569969       12.0934689066
  H        11.6882816912       10.5247247694       13.2970914135
  H        15.3921335127       11.1573363261       11.2050218860
  H        14.3642467847       13.0859952893        9.9897658931
  H        13.3743449859       11.6213037993       14.7530812930
  H        47.9301169400       14.2184281089        9.7111233194
  H        47.7798392440       14.3736735330        6.4951475896
  H        49.0830746991       18.5522256425       10.8670407339
  H        10.4159757138       14.1343335906        7.9988599886
  H        24.4809032747        3.0209402907        3.9219459104
  H        25.6172804903        4.8792130788        2.6873851239
  H        23.2259536123        7.7474491252        4.8211541976
  H        22.1099036646        5.8798179822        6.0593560292
  H        23.8155536842        5.7681356307        1.2490306090
  H        36.3851450795       32.1829430708        3.9450993299
  H        35.2563658218       30.3704563972        2.6605855392
  H        37.5048420018       27.4305618617        4.8523414617
  H        38.6142773417       29.2563246438        6.1458964632
  H        36.9953682907       29.4398554664        1.2249902799
  H        25.6952512319        8.6090795866        4.6388651236
  H        36.4224978842       32.2261932825       12.0871905306
  H        35.2949426941       30.4035686396       13.3585919339
  H        37.5007626137       27.4770039687       11.1055139550
  H        38.6016745460       29.3114894588        9.8192496191
  H        37.0048035735       29.4532517265       14.7779382450
  H        46.1089214782       26.5875054344       11.3855367027
  H        44.6682982270       35.1162181198        7.8141456122
  H        24.4481636612        3.0256117851       12.0626510075
  H        25.5900565329        4.8611459455       13.3140781167
  H        23.1743074279        7.7585933408       11.2493997499
  H        22.0447687718        5.9113390422        9.9966389479
  H        23.8082391319        5.7658010164       14.7994567578
  H        44.9540991412       34.3901439184        9.6947612956
  H        44.9022403736       34.2068791651        6.4908172256
  H        40.6641772260       33.2076190169       10.8521989590
  H        23.1498796720        1.9574544605        8.0043787251
  H        25.7773676943       19.6754397317        3.9532040029
  H        23.6158247859       19.7445531418        2.7111031876
  H        22.3121604017       16.2142185250        4.7934256516
  H        24.4812091518       16.1572442880        6.0351154452
  H        23.7099254868       17.7512162017        1.2324960153
  H        35.1158512897       15.4585543236        3.9728011508
  H        37.2396106829       15.3944328896        2.6650654513
  H        38.6961041208       18.7788764827        4.8862927282
  H        36.5727834813       18.8193869979        6.2022714643
  H        37.2078416076       17.3511095270        1.2327635755
  H        20.3318735175       17.9844338553        4.6500010087
  H        35.2322773506       15.3860371409       11.9894709125
  H        37.3536883134       15.3683627259       13.2936573889
  H        38.6507978094       18.9050391486       11.2176635672
  H        36.5125529656       18.9194628959        9.9215461839
  H        37.2202110523       17.3710609233       14.7836898957
  H        35.1075731096       26.6570098006       11.3558538227
  H        28.5064468886       21.0807957296        7.8903951938
  H        25.7133701846       19.7047955900       12.0759488797
  H        23.5319824949       19.7713406997       13.2924802699
  H        22.3107479247       16.1681529068       11.2872707404
  H        24.4963213130       16.1167541854       10.0688843408
  H        23.6949420642       17.7463065040       14.7844802193
  H        28.9648021239       21.7229621458        9.7024694838
  H        29.1833111729       21.7035849613        6.5284743891
  H        32.2963709347       18.7025918933       10.8541099849
  H        27.3660886814       19.0271734467        8.0528883505
  H        14.8454684980       19.6726791531       12.1073077655
  H        17.0121793842       19.7341153682       13.3471171341
  H        18.3012201185       16.2038776392       11.2558776612
  H        16.1308482163       16.1585137207       10.0150143937
  H        16.9103449047       17.7354909904       14.8212499559
  H        46.0611792213       15.4353320346       12.0545306074
  H        43.9305964150       15.3934050001       13.3519704686
  H        42.5617636357       18.8552591585       11.1961070818
  H        44.6912737153       18.8705805046        9.8869628466
  H        44.0073914200       17.3400234646       14.8169994190
  H        20.2855361622       17.9467901465       11.4041822437
  H        46.0419152742       15.3923506457        4.0201743313
  H        43.9140618804       15.3254504496        2.7237553085
  H        42.5109721565       18.7832717854        4.8629054288
  H        44.6456360769       18.8362710162        6.1603948081
  H        43.9955693518       17.3063600432        1.2659943789
  H        46.1990671260       26.6826510706        4.6232796964
  H        52.7411999440       21.0627122277        8.1946420782
  H        14.8621627182       19.6856683054        3.9101086842
  H        17.0569057974       19.7709919330        2.7171814391
  H        18.3220501807       16.2291668437        4.8028320064
  H        16.1297913218       16.1683444363        6.0066662172
  H        16.9248245721       17.7466581014        1.2695904193
  H        52.3226287637       21.6736861152        6.2945781400
  H        52.0136820349       21.7027470821        9.4954906449
  H        49.0676061723       18.6076483976        5.2036533339
  H        13.2472310690       19.0164490062        7.9762308895
  H        29.9102344424       12.4986902467       12.2102317503
  H        28.8804730160       10.5503374406       13.3987969834
  H        25.2369511180       11.1351212078       11.1889408179
  H        26.2881939383       13.0621176504        9.9883064699
  H        27.1722398363       11.6561006121       14.7856964853
  H        30.9648580855       22.7230366917       12.0022198093
  H        31.9758873173       24.5950459602       13.3007218933
  H        35.6413875178       24.1287317464       11.0975281650
  H        34.6118783715       22.2634189402        9.7939982539
  H        33.6511485565       23.5564494758       14.7341633431
  H        25.7209576222        8.5745308553       11.3964254079
  H        30.9127816759       22.6707968298        3.8670212749
  H        31.9296418591       24.5459343163        2.5799784319
  H        35.5466050055       24.1493072095        4.8758004324
  H        34.5090838760       22.2866324264        6.1717522571
  H        33.6267439812       23.5515127155        1.1802866442
  H        40.5859944446       17.0613852937        4.6439562205
  H        32.5118985117       14.1495939100        8.1790327929
  H        29.8538894220       12.5026869998        3.9587426518
  H        28.8379094154       10.6058338387        2.6929219286
  H        25.1401889297       11.1812521704        4.8125570417
  H        26.1728694622       13.0739052010        6.0818081823
  H        27.1512949564       11.6745975435        1.2332412882
  H        33.2878167229       14.2283532034        6.3516055137
  H        33.4059093228       14.3782215632        9.5360168307
  H        32.0288076048       18.4933355755        5.0724386142
  H        30.1882958119       14.1361890449        8.0666401765
  H        16.1177921942        2.9627009215       12.1292658472
  H        14.9520950506        4.8194918909       13.3219381762
  H        17.3654250069        7.6855886774       11.2106677005
  H        18.5145794395        5.8183589470       10.0108445063
  H        16.7523498206        5.7389470478       14.7714056075
  H        44.8277108268       32.1400606693       11.9769367164
  H        45.9369615901       30.3411997598       13.3064363620
  H        43.6820793669       27.3779709602       11.1523677285
  H        42.5994045587       29.1898938855        9.8096787832
  H        44.2300338633       29.4365874285       14.7688508761
  H        14.8498792814        8.5454427065       11.3632436880
  H        44.9000896925       32.2339375493        3.9320665160
  H        46.0248502304       30.4128607621        2.6524475856
  H        43.7630090624       27.4840125645        4.8450429204
  H        42.6452970759       29.3178012806        6.1241978356
  H        44.2682615015       29.4704044640        1.2181715480
  H        35.0467581602       26.6237821446        4.6004622079
  H        36.6052469514       35.1334937429        8.1810159627
  H        16.1431289326        3.0124553388        3.9042207621
  H        14.9732379351        4.8556787853        2.6885907973
  H        17.3956558279        7.7468349782        4.7546479065
  H        18.5429058464        5.8930608904        5.9822344322
  H        16.7636613547        5.7549727665        1.2191634530
  H        36.2784069219       34.4817552711        6.2730665627
  H        36.3809644425       34.2090844688        9.5002662337
  H        40.5801230379       33.2024217874        5.1531593142
  H        17.4707915747        1.9467420543        7.9739927828
  H        28.7209300979       19.1104789210       12.4688684980
  H        28.7670209151       18.8047324151        3.6247454316
  H        30.5574146283       15.4545742583        3.8480170197
  H        32.4454657688       16.1421152022       12.3900604430
  H        18.8537829577        0.8687055629       12.3354414711
  H        40.5281834108       35.2288899406        3.9521012877
  H        42.3239494917       34.4192736037        3.5898337925
  H        22.0870678433        0.6924385887       12.3513224872
  H        11.5966300792       18.7128106045       12.3825120847
  H        52.2652476154       18.4311879395        3.6777598087
  H        49.2551889025       16.4763570832        3.5840090480
  H        10.1501693329       15.7982311450       12.2926346013
  H        50.8502825571       17.6927499376        3.9539233153
  H        10.0461061870       17.3947897899       12.0518987074
  H        20.2155519669        0.0018808615       12.0418424982
  H        39.1835146745       36.1243855879        3.6869899425
 Ni        30.5597640443       17.5991540079        2.7588264575
 Ni        30.6071003694       17.6666413756       12.3988043257
  O        10.6497792195       14.3652628837        5.4858384458
  O        12.6130411341       14.6574565156        6.5838337690
  O        49.1476372648       16.8458854513        7.9895871704
  O        50.3501333412       20.9361123945        5.6480983292
  O        48.3484657191       20.5932519511        6.6658570546
  O        11.0509077384       17.0539540429        6.5006476668
  O        50.3205459630       20.8816366330       10.4069041994
  O        48.3465378868       20.5866342532        9.3269444642
  O        49.5436415990       18.2483480356       10.0682116834
  O        12.3588337895       18.6246255427        7.9995639100
  O        48.6930875412       14.1487585211        6.7512424961
  O         8.2097471802       14.2106353206        9.3226278768
  O        10.7349998403       14.5067626323       10.6642912263
  O        12.5716151213       14.5827236114        9.3285779245
  O        22.8438048820        2.0410360145        5.4880577356
  O        21.6041878138        3.5912254313        6.5904386162
  O        42.0577675410       34.1368137634        7.9789384007
  O        37.9810915532       33.1323580209        5.5706056277
  O        39.2162670973       31.5729526805        6.6639036979
  O        20.3080017643        1.0390577970        6.5017881173
  O        38.0228711629       33.1826763675       10.4159916259
  O        39.2189047190       31.5833994395        9.3267949839
  O        40.6521295679       33.7691021966       10.0601210635
  O        18.2556744776        1.3758541806        7.9967054090
  O        44.6222503426       35.1004918992        6.7588596612
  O        24.2054872963       -0.0001719036        9.3207376438
  O        22.7524455689        2.0548879661       10.5823799810
  O        21.6235382739        3.5945351832        9.3412783670
  O        27.4689072605       18.6988956977        5.4888151834
  O        26.6917223937       16.9219220701        6.6673167744
  O        30.6367004980       19.3330277152        8.0492292873
  O        33.5399227780       16.3304741324        5.6531066698
  O        34.2714315980       18.1798905404        6.7333785986
  O        29.5328626136       17.0097009426        6.5754237692
  O        33.5872721951       16.2783745390       10.4062761233
  O        34.2116854098       18.2330823253        9.4183771230
  O        31.5180236461       18.2438823360       10.4945429632
  O        30.2876351532       15.1021538432        8.0762266158
  O        28.5526545484       21.0209497161        6.8215382194
  O        28.5034673970       20.9543530409        9.3265287943
  O        27.4518109145       18.6790432687       10.6586513528
  O        26.6864726254       16.9316397386        9.4180313242
  O        13.1456662560       18.6940070840       10.5860340313
  O        13.9178412873       16.9161194367        9.4041843456
  O        50.5957287852       19.3502271738        8.0202482959
  O        47.6804842906       16.3279396910       10.4180224260
  O        46.9521425609       18.1764435844        9.3241325241
  O        11.0690311379       17.0157507279        9.4894667633
  O        47.6732727070       16.3362503261        5.6517721556
  O        46.9235528743       18.2357986756        6.6620858505
  O        49.5685830227       18.3177037602        5.9820319484
  O        10.3187024046       15.1001946364        7.9971000672
  O        52.6706789836       21.0280236329        9.2417997328
  O        12.1468343713       20.8913953078        6.6733149664
  O        13.1050586138       18.6143186186        5.3261453992
  O        13.9561682625       16.9869565497        6.6648174324
  O        29.9262534981       14.4373069265       10.6611930719
  O        28.0004431802       14.6575203670        9.4848592752
  O        32.0652088552       16.8644299551        8.0813391720
  O        30.8985329128       20.9529437718       10.3299772376
  O        32.9010630543       20.5199654560        9.3438652534
  O        29.5668505326       17.0703421087        9.5698709057
  O        30.8525622934       20.8705566919        5.5849027129
  O        32.8536135696       20.5861377160        6.6462948547
  O        31.6089954803       18.2404706374        5.9134860297
  O        28.2532991958       18.6316344183        8.0672962772
  O        32.4902004623       14.2087721962        9.2498409698
  O        32.3988394621       14.2153738768        6.7440028166
  O        29.8403232534       14.4385038394        5.4840898315
  O        27.9611186610       14.5842483296        6.7499010373
  O        17.8891540730        1.9663990511       10.6628153595
  O        18.9559947087        3.5270895047        9.4080615184
  O        39.1684152245       34.1384234813        7.9971844241
  O        43.2801731834       33.0586942982       10.3317016974
  O        42.0342294732       31.5064369008        9.2414824240
  O        20.3170596920        1.0359164728        9.4803237523
  O        43.2761567076       33.1824397385        5.5748231743
  O        42.0052309584       31.5840698768        6.5829526886
  O        40.5787151600       33.7746796564        5.9355974553
  O        22.3669016542        1.3840336691        7.9979715638
  O        36.6728428369       35.0996134441        9.2334861314
  O        16.4455965256        0.0635762820        6.6680214040
  O        17.9363949242        2.0429820829        5.3264199280
  O        18.9187142203        3.5930792892        6.6658178916
  O        29.6618004791       18.6822503359        3.9908951928
  O        29.6087111682       19.2085551397       12.0834167313
  O        31.1769748287       16.1943347783        4.0087506157
  O        31.5242584304       16.0456344606       12.0901022726
  O        39.4567088484       35.2435807820        4.0020395867
  O        19.1417080908        0.0043463022       11.9904622055
  O        41.9693241622       35.1726004237        4.0871006084
  O        21.6911141428       -0.0694967289       11.8961297650
  O        51.3652051030       18.6143591662        4.0052699253
  O        10.7508006000       18.7471876520       11.9050434002
  O        50.0793691522       16.4127517484        4.0917453197
  O         9.5243488276       16.4831593504       11.9911428734
 Zr         9.2968176857       16.0528300115        6.1821769360
 Zr        49.8364789659       16.0069856112        9.7465719003
 Zr        22.0732534195        0.0296481532        6.1891888091
 Zr        42.4608733609       35.1529990174        9.8009777572
 Zr        29.5598028782       19.0387272475        6.2511118818
 Zr        29.5199145465       19.1836021708        9.8734200748
 Zr        11.0374989139       19.0523272832        9.8277258875
 Zr        11.0438620510       19.1550825852        6.2509818864
 Zr        31.3135083449       16.0349469118        9.8977186456
 Zr        31.3464537701       15.9915508895        6.2459621059
 Zr        18.6013627085       -0.0017777202        9.7639621210
 Zr        18.5063000299       -0.0088705979        6.2134108726
 Zr        12.3016352478       16.3232584386        7.9902965162
 Zr        48.6163425249       18.8330066179        8.0094965327
 Zr        20.3143521994        2.4729424954        7.9904189345
 Zr        40.6426671661       32.6866687711        7.9776763648
 Zr        28.3135462599       16.3177977950        8.0902249145
 Zr        32.6010855133       18.8198322624        7.9672942222
  H        29.9244200892       17.2665631339       13.5938536402
  H        30.2346251312       18.5175462782        1.6919953827
