     576
 i =       95, E =     -4780.0265397695
  C        11.8587265797       14.0535003584        5.7415686121
  C        12.4562350029       12.8905308983        5.0233144995
  C        11.7045591460       12.1716793676        4.0815834397
  C        12.2809270266       11.1094706902        3.3892311997
  C        13.6214730773       10.7396151537        3.6170381766
  C        14.3546028120       11.4430745719        4.5906171003
  C        13.7817188723       12.5080489823        5.2821310484
  C        14.2610368160        9.6489859249        2.8436262667
  C        14.2563587409        9.6569219778        1.4219241855
  C        13.7431141146       10.7590113351        0.6680188624
  C        49.1267138873       21.2332824043        5.8797294341
  C        48.5499332546       22.4012125366        5.1526079750
  C        49.3000194016       23.0686266969        4.1717281509
  C        48.7330920926       24.1077618901        3.4385183495
  C        47.4025141086       24.5092902914        3.6670659741
  C        46.6714900548       23.8603137134        4.6804485976
  C        47.2339351178       22.8153985674        5.4097918262
  C        46.7722872546       25.5869969212        2.8697978477
  C        46.7612047114       25.5573445764        1.4480411147
  C        47.2610377882       24.4421837206        0.7045804487
  C        14.8603828073        8.5706440501        0.7086400804
  C        14.8918907836        8.5970631366        3.5202496912
  C        49.1132101912       21.2034528419       10.1453754954
  C        48.5278005666       22.3647605678       10.8726501192
  C        49.2670590314       23.0255797839       11.8654610494
  C        48.6906936939       24.0601168102       12.5969293295
  C        47.3602292608       24.4567398617       12.3587701608
  C        46.6397547564       23.8116891384       11.3353923030
  C        47.2133392683       22.7757882011       10.6036279825
  C        46.7217892274       25.5317655768       13.1497297608
  C        46.7334348859       25.5281199136       14.5714296555
  C        47.2487594256       24.4288591986       15.3278190522
  C        40.6342202772       17.1517427003       15.3232377840
  C        40.6530496313       17.1792237916       12.5144241465
  C        11.8829703119       14.0865323606       10.2854705716
  C        12.4723340238       12.9107497454       10.9897134032
  C        11.7148095026       12.1775104179       11.9157837459
  C        12.2814301093       11.0950808517       12.5842172946
  C        13.6202771625       10.7214252990       12.3524354371
  C        14.3582533838       11.4370106596       11.3916486179
  C        13.7927879732       12.5181444099       10.7189330459
  C        14.2539077036        9.6246869178       13.1228358784
  C        14.2525871250        9.6446266877       14.5446751503
  C        13.7425976277       10.7535124233       15.2917639159
  C        22.5111179991        3.2446057814        5.7525954789
  C        23.2234359295        4.3504350368        5.0522188875
  C        24.2170860657        4.0718627884        4.1021157379
  C        24.8413356534        5.1125540258        3.4193520369
  C        24.4876824985        6.4539261196        3.6665851790
  C        23.5224788619        6.7239347449        4.6537704471
  C        22.8934184019        5.6851410866        5.3348009765
  C        25.0910556814        7.5615962855        2.8910112701
  C        25.0602413306        7.5567175230        1.4695729157
  C        24.3559822983        6.5589260140        0.7233898255
  C        38.3028077995       31.9287204113        5.8490402352
  C        37.5735497555       30.8383127141        5.1392326914
  C        36.6160028101       31.1413178145        4.1592618091
  C        35.9998269763       30.1204493144        3.4406417098
  C        36.3260976429       28.7713562311        3.6809002636
  C        37.2537455206       28.4757633460        4.6974626962
  C        37.8743498487       29.4954347179        5.4145083960
  C        35.7253049244       27.6791227369        2.8826522363
  C        35.7610192529       27.6931785390        1.4612331336
  C        36.4696695498       28.6944351682        0.7248732649
  C        25.6827130715        8.6270867903        0.7499158164
  C        25.6905788045        8.6349681803        3.5620125832
  C        38.3297867491       31.9625938186       10.1559537872
  C        37.6103354571       30.8880531220       10.8978480247
  C        36.6824799861       31.1944749807       11.9047392124
  C        36.0753311740       30.1740100951       12.6339097871
  C        36.3822648068       28.8225297597       12.3789716823
  C        37.2877542083       28.5259910663       11.3420868074
  C        37.8970440275       29.5429289355       10.6144188429
  C        35.7770049860       27.7217871057       13.1622253695
  C        35.7881959905       27.7146323027       14.5840348692
  C        36.4821832905       28.7049035962       15.3480923587
  C        46.1354994056       26.6208135619       15.2815356185
  C        46.0879404493       26.5801599971       12.4736423207
  C        22.4601680227        3.2563576589       10.2577902868
  C        23.1518200494        4.3664037534       10.9804175182
  C        24.1521430333        4.0832362278       11.9239667490
  C        24.7772127878        5.1155211616       12.6193542508
  C        24.4223761346        6.4606883823       12.3937384847
  C        23.4453914373        6.7370426468       11.4185523267
  C        22.8154453470        5.7050622790       10.7238519971
  C        25.0502310422        7.5605181636       13.1679020336
  C        25.0394925866        7.5557269313       14.5905982755
  C        24.3441776473        6.5596593684       15.3465332244
  C        26.6215265163       17.8542430500        5.7775748135
  C        25.3173765397       17.8992002251        5.0485933844
  C        25.0609715437       18.8915899294        4.0885676640
  C        23.8470646592       18.9123634274        3.4039147360
  C        22.8525869669       17.9451844548        3.6570915806
  C        23.1067130451       16.9750015772        4.6452405384
  C        24.3222128638       16.9478974666        5.3272314832
  C        21.5781689499       17.9331771131        2.8950294170
  C        21.5780071613       17.9129416071        1.4725220683
  C        22.7827982108       17.7864998661        0.7114383056
  C        34.4425672385       17.1927978413        5.9200968298
  C        35.7354169982       17.1428805285        5.1781361561
  C        35.9337531781       16.1857429441        4.1708939577
  C        37.1131651522       16.1775461001        3.4317307192
  C        38.1260417793       17.1236679888        3.6825515442
  C        37.9309031947       18.0590397127        4.7165122917
  C        36.7481639867       18.0741686699        5.4514867769
  C        39.3796798117       17.1373778361        2.8964152548
  C        39.3758611579       17.1628189538        1.4751074407
  C        38.1696508200       17.2943881971        0.7176506431
  C        20.3313048254       17.9336899673        0.7644245533
  C        20.3535955499       17.9367411870        3.5781482403
  C        34.4739227425       17.2472573437       10.1843210673
  C        35.7743347205       17.1778157335       10.9111978351
  C        35.9856773618       16.2034073528       11.8977576917
  C        37.1723179082       16.1888352679       12.6250756222
  C        38.1750564338       17.1479420218       12.3844978827
  C        37.9696201484       18.0976240597       11.3665961069
  C        36.7808653292       18.1174834809       10.6426192022
  C        39.4220196265       17.1693752318       13.1788736327
  C        39.3977537108       17.1807693688       14.5996970776
  C        38.1800019547       17.3015929380       15.3408696221
  C        35.1573131127       26.6356294616       15.2871593438
  C        35.1868518654       26.6516110893       12.4782799708
  C        26.5752789073       17.8283820969       10.3252945135
  C        25.2603689653       17.8705792246       11.0334604635
  C        24.9968166113       18.8751442907       11.9767030421
  C        23.7778877831       18.9021817969       12.6487400268
  C        22.7935853797       17.9245305813       12.4009394486
  C        23.0522288265       16.9438551442       11.4263822203
  C        24.2720030058       16.9148390825       10.7527960466
  C        21.5290548502       17.9075135551       13.1725905993
  C        21.5522731324       17.8978767113       14.5939973644
  C        22.7706617493       17.7792964472       15.3352460277
  C        14.0466319460       17.8292580885       10.2883941373
  C        15.3513690853       17.8875089624       11.0129474764
  C        15.6081714970       18.8922676084       11.9588383354
  C        16.8173803590       18.9142773531       12.6512799147
  C        17.8037945267       17.9343542834       12.4197719993
  C        17.5518572730       16.9539201298       11.4415332089
  C        16.3420992585       16.9273273738       10.7507399385
  C        19.0728521318       17.9176515434       13.1886552311
  C        19.0712466320       17.9153760999       14.6111546639
  C        17.8642700950       17.8186950787       15.3727824028
  C        46.8062261194       17.2202927108       10.1598541456
  C        45.5182679493       17.1643808428       10.9080137108
  C        45.3116921904       16.1922877217       11.8988508866
  C        44.1314713812       16.1821000700       12.6372933480
  C        43.1288513650       17.1440023922       12.4060223151
  C        43.3328459873       18.0956690050       11.3887746564
  C        44.5136805748       18.1099974058       10.6516422430
  C        41.8763502281       17.1622562050       13.1942154644
  C        41.8814777608       17.1625155969       14.6158262296
  C        43.0900865299       17.2539035602       15.3753892714
  C        20.3179638005       17.9248727737       15.3193358545
  C        20.2969583722       17.8972781926       12.5062063138
  C        46.7859982073       17.2305944958        5.8905001601
  C        45.4823532269       17.1249084994        5.1775012104
  C        45.2650220112       16.1315735787        4.2108460744
  C        44.0769359653       16.1082053134        3.4849472200
  C        43.0777121016       17.0748258926        3.7096395173
  C        43.2846025161       18.0362193169        4.7162808872
  C        44.4739218491       18.0664469284        5.4367903890
  C        41.8330460477       17.1038072796        2.9117558240
  C        41.8596059532       17.1303047016        1.4912952009
  C        43.0797542975       17.2361904661        0.7520072239
  C        46.1532818796       26.6372732960        0.7262908880
  C        46.1624731012       26.6561811735        3.5359280771
  C        14.0459201351       17.8318076994        5.7085075145
  C        15.3672306031       17.9063920676        5.0175716741
  C        15.6412575331       18.9229481027        4.0903282262
  C        16.8702859237       18.9607630149        3.4352893733
  C        17.8533983728       17.9810827191        3.6813212745
  C        17.5861484285       16.9933192048        4.6467721659
  C        16.3592151003       16.9551417345        5.3054859019
  C        19.1207347533       17.9565389372        2.9117199454
  C        19.0964076759       17.9343136635        1.4899226511
  C        17.8764304177       17.8272859357        0.7490984932
  C        28.8125204814       14.0944815441       10.3934813721
  C        28.1957914236       12.9226208444       11.0811719618
  C        28.9144625960       12.1826773698       12.0315294939
  C        28.3117989558       11.1086337784       12.6817606845
  C        26.9764118647       10.7512358033       12.4059821271
  C        26.2795884050       11.4717537021       11.4195183176
  C        26.8800308749       12.5457674964       10.7676319414
  C        26.3034049492        9.6729275184       13.1659508214
  C        26.2871566721        9.7007309295       14.5869535220
  C        26.7903372586       10.8136980469       15.3327834759
  C        32.1819379828       21.2382074277       10.1423358676
  C        32.7815203229       22.3992923975       10.8657422678
  C        32.0343613876       23.0801441214       11.8390205534
  C        32.6075405927       24.1196728885       12.5653078079
  C        33.9429604951       24.5053661056       12.3388543353
  C        34.6730634580       23.8418681178       11.3351528849
  C        34.1021825862       22.7970942010       10.6107503310
  C        34.5734702112       25.5809697721       13.1373981072
  C        34.5665803583       25.5519862616       14.5586281114
  C        34.0581645261       24.4361023418       15.2956142754
  C        25.6763213383        8.6232382785       15.3052474183
  C        25.6679693355        8.6216586798       12.4921241592
  C        32.1162581963       21.1912822368        5.8407896622
  C        32.7023576473       22.3502990112        5.1026913851
  C        31.9638000684       23.0232055294        4.1166708318
  C        32.5413531087       24.0626438459        3.3907173464
  C        33.8716066348       24.4591931596        3.6334002642
  C        34.5915590880       23.8013575691        4.6484798735
  C        34.0182436889       22.7574637876        5.3699652461
  C        34.5116867166       25.5449524308        2.8556912247
  C        34.5327076442       25.5346271130        1.4344469565
  C        34.0408013527       24.4287742014        0.6720880394
  C        40.6227853407       17.1387012557        0.7673012480
  C        40.6024053987       17.1247877532        3.5765647787
  C        28.7405557259       14.0680586711        5.8140067372
  C        28.1312134433       12.9233438451        5.0753026091
  C        28.8654518491       12.2225228795        4.1061994253
  C        28.2808519076       11.1679791619        3.4088961508
  C        26.9469354415       10.7866291558        3.6567951302
  C        26.2302381725       11.4737967579        4.6544570264
  C        26.8123956665       12.5296447220        5.3524993484
  C        26.3017455871        9.6979141892        2.8845270381
  C        26.2889769441        9.7131801525        1.4628287982
  C        26.7896952792       10.8207212920        0.7088154334
  C        18.1354640678        3.1811024877       10.3172156583
  C        17.4062831682        4.2783257107       11.0158846142
  C        16.3903416752        4.0000349671       11.9431844723
  C        15.7426544436        5.0400602556       12.6066351205
  C        16.0948365465        6.3837450611       12.3671307516
  C        17.0844883310        6.6532056086       11.4036319050
  C        17.7335520039        5.6158207132       10.7386239881
  C        15.4704669496        7.4914389395       13.1301416427
  C        15.4857066452        7.4907091099       14.5518481660
  C        16.1873176788        6.4971195878       15.3050005452
  C        42.9459846673       31.8596043858       10.0729012822
  C        43.6463991518       30.7719321608       10.8168076420
  C        44.5918480148       31.0932641627       11.8029550423
  C        45.1975906375       30.0877147606       12.5505903796
  C        44.8712508999       28.7346344533       12.3356816377
  C        43.9455842059       28.4202848958       11.3223174648
  C        43.3367523722       29.4254241225       10.5742927567
  C        45.4887700862       27.6553247057       13.1388936700
  C        45.4929174109       27.6809934156       14.5605851037
  C        44.8059432314       28.6891237682       15.3071998466
  C        14.8566504835        8.5631437975       15.2642122569
  C        14.8752004290        8.5632023489       12.4515412704
  C        42.9465704302       31.9617076333        5.8089553521
  C        43.6918890234       30.8856081835        5.0955635511
  C        44.6562696433       31.1915425230        4.1230572161
  C        45.2778210260       30.1719612202        3.4053520592
  C        44.9542632024       28.8216159040        3.6431529913
  C        44.0210969502       28.5239381794        4.6542343318
  C        43.3928173139       29.5406872340        5.3664089089
  C        45.5632065632       27.7242031730        2.8578765564
  C        45.5334327284       27.7175003774        1.4365796818
  C        44.8272256311       28.7077881537        0.6835922073
  C        35.1417332496       26.6260166934        0.7318120034
  C        35.1188475902       26.6035504616        3.5417099613
  C        18.1485965696        3.2470505918        5.7065448403
  C        17.4300873023        4.3438454658        4.9972120021
  C        16.4147621166        4.0526181118        4.0737510681
  C        15.7664742404        5.0832824677        3.3984044113
  C        16.1213159516        6.4284887797        3.6210323635
  C        17.1128670015        6.7118232084        4.5781197090
  C        17.7605341951        5.6828850489        5.2578441194
  C        15.4907708828        7.5241848620        2.8486317695
  C        15.4966752529        7.5075732646        1.4275038622
  C        16.1935213529        6.5059233033        0.6808134862
  H        10.6724446652       12.4658477622        3.9045318349
  H        11.6946372403       10.5510284200        2.6626622709
  H        15.3916049648       11.1684082183        4.7724114623
  H        14.3511436531       13.0711974110        6.0176541910
  H        13.3759958390       11.6310836539        1.2013398047
  H        50.3227649378       22.7486535332        3.9870859768
  H        49.3196005470       24.6231103858        2.6810145936
  H        45.6419516301       24.1609887261        4.8635104540
  H        46.6628796315       22.2900082370        6.1717498813
  H        47.6294944812       23.5757900044        1.2462983296
  H        14.8722510843        8.5883039523        4.6085565460
  H        50.2871574167       22.7028366973       12.0602734858
  H        49.2691048337       24.5756890713       13.3603409137
  H        45.6102976102       24.1088068604       11.1464322152
  H        46.6524824493       22.2534598674        9.8322035506
  H        47.6074532643       23.5517041647       14.7969201564
  H        40.6592810267       17.1438430270       11.4267169387
  H        48.6869686827       14.0948599894        7.7999803623
  H        10.6813074828       12.4665115612       12.0931314128
  H        11.6896211710       10.5246138508       13.2968422835
  H        15.3937170255       11.1591992317       11.2057727849
  H        14.3651363910       13.0875641724        9.9904507072
  H        13.3756993223       11.6220985681       14.7531297084
  H        47.9301834258       14.2179460436        9.7109808247
  H        47.7800336683       14.3731431392        6.4950213345
  H        49.0839643050       18.5525224284       10.8675268544
  H        10.4159857160       14.1342834115        7.9987096706
  H        24.4778699397        3.0336332917        3.9091325796
  H        25.6119686513        4.8965298737        2.6825527750
  H        23.2422904301        7.7565762468        4.8511103329
  H        22.1258727539        5.8842038386        6.0786746784
  H        23.7942736491        5.8024806567        1.2636478415
  H        36.3797237659       32.1844391115        3.9627079863
  H        35.2572679729       30.3591325713        2.6823990369
  H        37.5134687615       27.4368465329        4.8899565563
  H        38.6165132234       29.2751276628        6.1781589375
  H        37.0343554949       29.4439070754        1.2717370878
  H        25.7284757725        8.6160378429        4.6497114034
  H        36.4582877839       32.2381572285       12.1132865977
  H        35.3502058123       30.4163238813       13.4076577355
  H        37.5362468839       27.4863760809       11.1391503344
  H        38.6191003614       29.3199713460        9.8327440651
  H        37.0575332487       29.4621456911       14.8232454235
  H        46.1094313323       26.5875379916       11.3856076729
  H        44.6684225804       35.1163250338        7.8139471254
  H        24.4306741956        3.0456729590       12.0939434551
  H        25.5564882654        4.8890270781       13.3439202582
  H        23.1600496453        7.7709286057       11.2350890441
  H        22.0452551437        5.9157082771        9.9854822037
  H        23.7728009494        5.8042419243       14.8149241716
  H        44.9543282736       34.3908594799        9.6954862101
  H        44.9022864400       34.2070302380        6.4906220521
  H        40.6666466642       33.2094413244       10.8532302203
  H        23.1501763390        1.9583559210        8.0052384546
  H        25.8214196080       19.6460849412        3.8988343027
  H        23.6527550459       19.6891367620        2.6673299580
  H        22.3514472982       16.2187695917        4.8496118030
  H        24.5279878987       16.1859355338        6.0754994216
  H        23.7232295397       17.6634440698        1.2403066936
  H        35.1464703074       15.4602790007        3.9788101167
  H        37.2668333381       15.4287816224        2.6577245818
  H        38.7061794385       18.7963899206        4.9143073511
  H        36.5798456774       18.8110478749        6.2334503304
  H        37.2303752425       17.4193138158        1.2487558373
  H        20.3606396808       17.9758240253        4.6660647418
  H        35.2013628868       15.4754352374       12.0912330878
  H        37.3360707477       15.4303755295       13.3874272678
  H        38.7382630975       18.8440671348       11.1772743184
  H        36.5993036951       18.8676964822        9.8766929121
  H        37.2485546216       17.4305734959       14.7970856269
  H        35.1580082698       26.6788184793       11.3906532485
  H        28.5076611935       21.0874538898        7.8852198984
  H        25.7604997509       19.6264582454       12.1650399824
  H        23.5730853757       19.6857370278       13.3751136375
  H        22.3009793225       16.1815446670       11.2301991539
  H        24.4880278038       16.1461352262       10.0146662662
  H        23.7013671171       17.6515146934       14.7905669892
  H        28.9961004898       21.7268070922        9.7480939731
  H        29.1687811624       21.7392244656        6.5549614565
  H        32.0725598775       18.5643491304       10.9289043182
  H        27.4036339237       19.0749165390        8.0760349520
  H        14.8496466723       19.6514504043       12.1360746650
  H        17.0129063446       19.6996605044       13.3782467763
  H        18.3031836501       16.1895466278       11.2539122419
  H        16.1358764426       16.1571345931       10.0113129773
  H        16.9214261053       17.7048391307       14.8457044447
  H        46.0928398786       15.4584814521       12.0830829624
  H        43.9707105988       15.4205925227       13.3972248410
  H        42.5662878766       18.8459898556       11.2066051954
  H        44.6884978386       18.8589429919        9.8828508369
  H        44.0320999246       17.3692552787       14.8469038892
  H        20.2907776888       17.9268569042       11.4180734808
  H        46.0429675735       15.3934616484        4.0294834246
  H        43.9104450328       15.3385771068        2.7344018646
  H        42.5169492510       18.7859517447        4.8960623506
  H        44.6565520877       18.8283206229        6.1905557979
  H        44.0138659861       17.3368103985        1.2969944265
  H        46.1994274464       26.6827542898        4.6233697226
  H        52.7411108247       21.0626072885        8.1947174209
  H        14.8811398937       19.6773427876        3.8994990553
  H        17.0813575189       19.7523271183        2.7194624825
  H        18.3360539780       16.2301631268        4.8446565689
  H        16.1380855019       16.1795563912        6.0347319985
  H        16.9428194612       17.7200214563        1.2930783042
  H        52.3222872624       21.6732014267        6.2943138890
  H        52.0130403182       21.7019041326        9.4956366896
  H        49.0674157268       18.6076198417        5.2041696327
  H        13.2475179877       19.0163647933        7.9771912855
  H        29.9426291470       12.4647815951       12.2471080603
  H        28.8706403938       10.5340372746       13.4172792308
  H        25.2476925090       11.2059112752       11.1994509694
  H        26.3396304822       13.1236371412       10.0219955567
  H        27.1532275765       11.6828860678       14.7925954987
  H        31.0084093752       22.7688939593       12.0205700666
  H        32.0233708898       24.6483306459       13.3154240947
  H        35.7068673296       24.1301094857       11.1558590147
  H        34.6704311015       22.2589481518        9.8555477834
  H        33.7047673865       23.5676310102       14.7471811979
  H        25.7011236994        8.6010413936       11.4042297273
  H        30.9354724954       22.7177573316        3.9347121274
  H        31.9623453652       24.5879418477        2.6340850395
  H        35.6206686456       24.0973348838        4.8415280634
  H        34.5786681575       22.2281521568        6.1370977858
  H        33.6754220224       23.5536090255        1.2013574587
  H        40.5948967352       17.0768903200        4.6638062223
  H        32.5180947144       14.1427206636        8.2570461386
  H        29.8965899395       12.5129097599        3.9180259308
  H        28.8575643067       10.6215895719        2.6657473675
  H        25.1984072212       11.1913421811        4.8531069303
  H        26.2560234958       13.0757048969        6.1106224235
  H        27.1510059295       11.6956405333        1.2414165576
  H        33.2982716378       14.1904004332        6.4396702576
  H        33.4091717018       14.4083180924        9.6056760144
  H        32.1335730069       18.4900035092        5.1518234245
  H        30.2307544214       14.1865902919        8.0787340170
  H        16.1180716320        2.9635606059       12.1294299269
  H        14.9530206475        4.8207765833       13.3221216002
  H        17.3672049724        7.6860440531       11.2107393010
  H        18.5158434351        5.8184375366       10.0110406279
  H        16.7539878752        5.7398743338       14.7714850993
  H        44.8281079941       32.1403476133       11.9771771549
  H        45.9374340989       30.3414949836       13.3065496620
  H        43.6830689171       27.3781907531       11.1520705034
  H        42.6003373359       29.1900688232        9.8094427239
  H        44.2307607295       29.4370111108       14.7688820731
  H        14.8515165259        8.5464845602       11.3633189634
  H        44.8996952569       32.2342304404        3.9314823316
  H        46.0245937022       30.4132280024        2.6519938829
  H        43.7644604394       27.4841753130        4.8460564141
  H        42.6466380643       29.3178730662        6.1251604065
  H        44.2688738832       29.4708062323        1.2181478714
  H        35.0733470221       26.6159868322        4.6290887187
  H        36.6052127255       35.1340319493        8.1806444384
  H        16.1435365394        3.0130634576        3.9041354729
  H        14.9740515239        4.8565221696        2.6884028134
  H        17.3965800533        7.7472593681        4.7548565705
  H        18.5435996285        5.8933079307        5.9824106407
  H        16.7650547680        5.7557581731        1.2192503016
  H        36.2786002434       34.4825092558        6.2729480644
  H        36.3810164616       34.2091511719        9.4995983713
  H        40.5808201827       33.2028589010        5.1531945438
  H        17.4708111365        1.9475557640        7.9740778156
  H        29.1383846305       19.3378211241       12.4178019334
  H        28.9220155330       18.4310282642        3.7686197533
  H        30.6830602919       15.5148502575        3.8032167906
  H        31.4021671621       15.6840713030       12.5318771227
  H        28.1535257430       17.8530191927       14.4903535615
  H        29.6780691248       15.5226833417       14.5919000508
  H        31.7613803604       19.0760607753        1.1504051134
  H        32.6448471964       16.4544366845        1.7927392169
  H        27.5232289764       17.1431471988        1.9943728847
  H        32.3299938758       18.9322312666       14.8831548703
  H        18.8532555692        0.8690518833       12.3350862227
  H        40.5283143575       35.2290304584        3.9519587264
  H        42.3249611783       34.4197792386        3.5898408631
  H        22.0875152253        0.6917045765       12.3519305235
  H        11.5969270665       18.7129816451       12.3825088028
  H        52.2652196476       18.4309339654        3.6775220520
  H        49.2551414586       16.4770416041        3.5845494391
  H        10.1503410777       15.7981117735       12.2926879530
  H        50.8501602281       17.6924867442        3.9542774864
  H        10.0461919037       17.3944192741       12.0519843047
  H        20.2144759504        0.0021080734       12.0419756740
  H        39.1841152483       36.1249490910        3.6868196106
 Ni        30.9049807101       17.6523026830        2.9119326212
 Ni        31.4454095689       16.5988001415       -0.3201974128
 Ni        29.8461686447       19.0363673901       -0.4115198054
 Ni        30.1004676996       17.4233910909       13.0713521436
  O        10.6499646447       14.3650956156        5.4858355430
  O        12.6131879968       14.6575366456        6.5838878980
  O        49.1481420793       16.8458930145        7.9897382651
  O        50.3501757744       20.9360531543        5.6481456981
  O        48.3485044703       20.5933761174        6.6659383802
  O        11.0517625369       17.0538579913        6.5006771337
  O        50.3210333364       20.8816863456       10.4068448089
  O        48.3467591917       20.5868471722        9.3271530511
  O        49.5437121705       18.2484350906       10.0683017378
  O        12.3590877343       18.6245463332        7.9996683000
  O        48.6932910857       14.1485223082        6.7513014984
  O         8.2098669755       14.2103677422        9.3225700691
  O        10.7353920251       14.5067288808       10.6643206846
  O        12.5718247583       14.5828594732        9.3284744235
  O        22.8444873544        2.0433917227        5.4871435235
  O        21.6051310274        3.5920090365        6.5899531984
  O        42.0583685654       34.1375883898        7.9789757735
  O        37.9814503738       33.1365823175        5.5722890086
  O        39.2181626838       31.5757223031        6.6666986614
  O        20.3084018376        1.0395198950        6.5021010981
  O        38.0247280362       33.1857947337       10.4151937691
  O        39.2196409374       31.5841124335        9.3259332207
  O        40.6523470893       33.7694397796       10.0601526259
  O        18.2553681402        1.3762118401        7.9967253148
  O        44.6222232181       35.1005878007        6.7587843557
  O        24.2053944179        0.0000412445        9.3207920429
  O        22.7528953678        2.0582916134       10.5839876188
  O        21.6241308463        3.5957722611        9.3420558580
  O        27.5013088341       18.7457831834        5.4848831890
  O        26.7624510947       16.9356489285        6.6519416092
  O        30.6698932360       19.4085284364        8.0047091787
  O        33.5880460929       16.2770585886        5.6664730092
  O        34.2778468498       18.1682254150        6.7342466131
  O        29.5772959143       17.0532656066        6.5812504433
  O        33.6162248679       16.3279747912       10.4107766888
  O        34.3060492204       18.2458444761        9.4049966523
  O        31.6607568625       18.3192373389       10.0825132044
  O        30.3244793257       15.1533602823        8.0823948972
  O        28.5560670993       21.0338688763        6.8309102583
  O        28.5132310419       20.9586920252        9.3989959282
  O        27.4593893849       18.6805142617       10.6556836113
  O        26.6947918372       16.9292317951        9.4114166985
  O        13.1486459504       18.6930367801       10.5873409824
  O        13.9194391779       16.9162745208        9.4050581197
  O        50.5962899813       19.3502994977        8.0204818706
  O        47.6833393807       16.3271548486       10.4173476357
  O        46.9523798786       18.1760673863        9.3241318911
  O        11.0698012713       17.0154847854        9.4896398935
  O        47.6765887472       16.3354385894        5.6532490374
  O        46.9282208559       18.2356856457        6.6651092558
  O        49.5688071005       18.3177132497        5.9822735326
  O        10.3186393534       15.1001370781        7.9970686637
  O        52.6707571573       21.0278884180        9.2418359271
  O        12.1468482314       20.8911667338        6.6731828294
  O        13.1084635936       18.6136608158        5.3254947654
  O        13.9576054719       16.9871637236        6.6651287101
  O        29.9956429342       14.4450624287       10.7293979321
  O        28.0903576381       14.6539575106        9.4941558011
  O        32.1417650579       16.8540188101        8.0715387791
  O        30.9666958936       20.9538096353       10.4031671908
  O        32.9479678051       20.6013032919        9.3338262411
  O        29.5670651051       17.0734043704        9.5689417286
  O        30.9028614663       20.8725311667        5.5753302175
  O        32.8781540230       20.5875626519        6.6631925586
  O        31.6898036344       18.2439919147        5.9826680010
  O        28.2887506525       18.6759645537        8.0628769179
  O        32.4938996948       14.2133102095        9.3305009345
  O        32.4065706357       14.2107019149        6.8253673030
  O        29.9173318796       14.4425158821        5.4823107954
  O        28.0413293039       14.5867869336        6.7505173070
  O        17.8892239602        1.9666553717       10.6628117270
  O        18.9561880581        3.5271509580        9.4079708627
  O        39.1686403574       34.1388587344        7.9971244734
  O        43.2802318563       33.0590054537       10.3317284068
  O        42.0345588737       31.5064618274        9.2416281170
  O        20.3177475097        1.0368395305        9.4801297320
  O        43.2760970772       33.1826510775        5.5748680021
  O        42.0052940138       31.5841274679        6.5829337277
  O        40.5789517515       33.7749854491        5.9357015208
  O        22.3673881278        1.3846478221        7.9979286311
  O        36.6727699888       35.0997936286        9.2332679451
  O        16.4456441573        0.0641816153        6.6682141891
  O        17.9365081755        2.0433544825        5.3263755944
  O        18.9189757337        3.5931307693        6.6659116280
  O        29.8158921456       18.6816666006        4.0772012333
  O        29.8618948092       18.9086514261       11.9175414768
  O        31.3316051283       16.1997684797        4.0655136097
  O        31.3443541916       16.4923296854       11.9827689223
  O        32.0737384826       17.1484962680        1.4194629718
  O        28.4624348265       17.0748698788        1.7517443764
  O        30.4572480229       15.9765382512       14.2289861522
  O        31.5245593202       18.3932621391       14.8285707834
  O        30.8382162825       19.4136967592        1.2631612190
  O        28.8902131276       18.3899776313       14.1516168738
  O        39.4569976956       35.2440741271        4.0019407488
  O        19.1410442269        0.0044535632       11.9905421432
  O        41.9695393009       35.1727055235        4.0871407985
  O        21.6910778633       -0.0695358762       11.8959656052
  O        51.3653820747       18.6142887528        4.0054587358
  O        10.7511527731       18.7471607196       11.9049249711
  O        50.0796311952       16.4128419120        4.0917215104
  O         9.5245174105       16.4830326139       11.9912344781
 Zr         9.2968964054       16.0526675196        6.1824474071
 Zr        49.8361795663       16.0065920152        9.7464160277
 Zr        22.0736387120        0.0304732202        6.1888854837
 Zr        42.4612723799       35.1540650124        9.8011707614
 Zr        29.6169783007       19.0688856163        6.2558293144
 Zr        29.5852810560       19.1847483929        9.8158145891
 Zr        11.0380054432       19.0518316646        9.8276924037
 Zr        11.0438806662       19.1547637072        6.2511043460
 Zr        31.3520110255       16.1064635960        9.8627218682
 Zr        31.4050484591       16.0077662245        6.2930482508
 Zr        18.6015187552       -0.0006925686        9.7632071810
 Zr        18.5068014930       -0.0073354460        6.2137294854
 Zr        12.3020204964       16.3235197415        7.9902737610
 Zr        48.6166213202       18.8330790458        8.0102678630
 Zr        20.3154593663        2.4740279333        7.9904686861
 Zr        40.6442534959       32.6877801210        7.9780958748
 Zr        28.3460384477       16.3375957451        8.0908474966
 Zr        32.6412706262       18.8380946023        8.0453435586
  H        28.6067789402       17.8014437942        1.0926874482
  H        30.8420321531       20.2694632127        1.7303951006
  H        28.5888796340       19.4543457775        0.2086247004
  H        31.3713219042       15.2592527850        0.2228156356
