     576
 i =      251, E =     -4780.0512192083
  C        11.8587804644       14.0534995828        5.7416018273
  C        12.4563025850       12.8905672345        5.0233146553
  C        11.7045763871       12.1715883144        4.0817151754
  C        12.2809464434       11.1093897379        3.3893505759
  C        13.6215617937       10.7396935507        3.6170116663
  C        14.3547757777       11.4432902849        4.5904249362
  C        13.7818758615       12.5082586793        5.2819406342
  C        14.2610701510        9.6490231743        2.8436145174
  C        14.2563246229        9.6569013933        1.4219140037
  C        13.7431093903       10.7590171451        0.6680280919
  C        49.1268761864       21.2332320436        5.8797144789
  C        48.5501136571       22.4012395073        5.1526158106
  C        49.3001402874       23.0685731104        4.1716482615
  C        48.7332054385       24.1077329150        3.4384640953
  C        47.4026567079       24.5092976758        3.6670969643
  C        46.6717074768       23.8604249321        4.6805975651
  C        47.2341636812       22.8154925211        5.4099071155
  C        46.7724149805       25.5870125083        2.8698505258
  C        46.7611433072       25.5572896329        1.4480964985
  C        47.2610399726       24.4421583009        0.7046330491
  C        14.8603817109        8.5706302273        0.7086509649
  C        14.8919268899        8.5971234400        3.5202620915
  C        49.1132584017       21.2034466396       10.1453587454
  C        48.5278213547       22.3647649832       10.8726801175
  C        49.2670415580       23.0254998123       11.8655638662
  C        48.6906724487       24.0600285922       12.5970516539
  C        47.3602566015       24.4567487604       12.3588098962
  C        46.6398170156       23.8117454116       11.3353793391
  C        47.2134026563       22.7758590864       10.6035910087
  C        46.7217762582       25.5317395073       13.1497901479
  C        46.7333891849       25.5280788543       14.5714908308
  C        47.2487048610       24.4288085421       15.3278736275
  C        40.6364630619       17.1545315096       15.3239837771
  C        40.6568696595       17.1842813998       12.5153424542
  C        11.8830427376       14.0866019305       10.2855466749
  C        12.4724195781       12.9108446775       10.9898115797
  C        11.7148232281       12.1774267354       11.9156894562
  C        12.2814415393       11.0949914910       12.5841167571
  C        13.6203546369       10.7214907584       12.3524612284
  C        14.3584295906       11.4372341127       11.3918741323
  C        13.7929437409       12.5183707848       10.7191741475
  C        14.2539620538        9.6247266644       13.1228499207
  C        14.2525840241        9.6446183720       14.5446894081
  C        13.7425715661       10.7534961878       15.2917733697
  C        22.5107570471        3.2446382563        5.7524899721
  C        23.2217113850        4.3506812305        5.0514669109
  C        24.2149064562        4.0727807843        4.1007204813
  C        24.8377520374        5.1139871987        3.4175362565
  C        24.4831796479        6.4550433985        3.6651501843
  C        23.5182127187        6.7243577688        4.6527191208
  C        22.8905558039        5.6850876669        5.3341812263
  C        25.0858699952        7.5631238024        2.8898409163
  C        25.0559083480        7.5581421622        1.4684333759
  C        24.3519932432        6.5604233536        0.7218144848
  C        38.3042141673       31.9298970178        5.8485771244
  C        37.5779862580       30.8389663707        5.1372363742
  C        36.6194815955       31.1404644024        4.1579527560
  C        36.0064543842       30.1183689608        3.4385394981
  C        36.3373210264       28.7703946911        3.6780318004
  C        37.2665222197       28.4761714170        4.6933499262
  C        37.8838372660       29.4970184658        5.4111247811
  C        35.7382568673       27.6769353439        2.8809655361
  C        35.7728458969       27.6900814446        1.4598334796
  C        36.4794438886       28.6920688408        0.7225641248
  C        25.6792039998        8.6282770042        0.7492278800
  C        25.6846590142        8.6364908568        3.5614088111
  C        38.3295339441       31.9626962484       10.1555910024
  C        37.6095732147       30.8877277088       10.8967304767
  C        36.6816907131       31.1934449349       11.9037831455
  C        36.0752481505       30.1724500743       12.6329038359
  C        36.3829411034       28.8212449665       12.3775395898
  C        37.2877599174       28.5253723205       11.3399442449
  C        37.8963578103       29.5428301965       10.6124061333
  C        35.7799744165       27.7197346416       13.1616322846
  C        35.7947885979       27.7116822526       14.5833313801
  C        36.4894743232       28.7026061098       15.3458561242
  C        46.1353863752       26.6207404640       15.2815928370
  C        46.0880206659       26.5801912287       12.4737009698
  C        22.4603818503        3.2564275444       10.2576422759
  C        23.1522692500        4.3664773378       10.9798728035
  C        24.1527650767        4.0834348075       11.9232919431
  C        24.7778915358        5.1158213501       12.6184608703
  C        24.4230375822        6.4609438237       12.3926284397
  C        23.4459940290        6.7372047169       11.4175065254
  C        22.8159751447        5.7051143745       10.7230408624
  C        25.0506412048        7.5608382811       13.1669303642
  C        25.0380129519        7.5566049243       14.5895700376
  C        24.3414493997        6.5609879366       15.3449576039
  C        26.6231894199       17.8612831966        5.7809855247
  C        25.3152937597       17.9095991601        5.0556435275
  C        25.0508659353       18.9145672759        4.1113075760
  C        23.8379757275       18.9369139945        3.4248622850
  C        22.8510540934       17.9584135300        3.6619378388
  C        23.1113598226       16.9758436760        4.6359808341
  C        24.3265545500       16.9476856050        5.3191710872
  C        21.5772677603       17.9478356339        2.8979607481
  C        21.5775036690       17.9338505339        1.4753184509
  C        22.7835245250       17.8183422578        0.7144243785
  C        34.4436230029       17.1921988435        5.9230452047
  C        35.7374680485       17.1422498836        5.1806927247
  C        35.9359977899       16.1842685527        4.1741743041
  C        37.1146105523       16.1768828448        3.4334353309
  C        38.1266391045       17.1244238616        3.6825134194
  C        37.9313333903       18.0605017398        4.7157177282
  C        36.7491801727       18.0750410481        5.4518756028
  C        39.3803518640       17.1378791388        2.8965310794
  C        39.3772435308       17.1637211706        1.4753272365
  C        38.1714100586       17.2946011228        0.7171555982
  C        20.3309123884       17.9499287387        0.7666312793
  C        20.3525568908       17.9455783324        3.5804205167
  C        34.4808270214       17.2476630010       10.1776664507
  C        35.7826067730       17.1801513698       10.9039183480
  C        35.9924559286       16.2063391317       11.8913498101
  C        37.1773359922       16.1932361504       12.6215479291
  C        38.1796024441       17.1532268227       12.3827314090
  C        37.9755726553       18.1025884373       11.3642364636
  C        36.7882906171       18.1209715898       10.6373935291
  C        39.4254383703       17.1742885706       13.1787837711
  C        39.4005133383       17.1840704922       14.5995766745
  C        38.1823693559       17.3029949417       15.3404035831
  C        35.1664937575       26.6317122178       15.2874629257
  C        35.1889543446       26.6495351490       12.4787289219
  C        26.5724557412       17.8291465662       10.3230694529
  C        25.2561293521       17.8760487417       11.0289995293
  C        24.9918024860       18.8880588893       11.9642396794
  C        23.7741344476       18.9182852222       12.6384291359
  C        22.7917750228       17.9362347561       12.4008252769
  C        23.0504941785       16.9487543860       11.4331549040
  C        24.2690069301       16.9167502987       10.7571450535
  C        21.5283733678       17.9216495778       13.1745607717
  C        21.5522119631       17.9185417216       14.5961481244
  C        22.7713452738       17.8107552248       15.3380569044
  C        14.0467605303       17.8294556641       10.2885909014
  C        15.3511059571       17.8885536140       11.0136159956
  C        15.6063635068       18.8936835954       11.9596113021
  C        16.8151408683       18.9172037203       12.6526270939
  C        17.8030189694       17.9385330243       12.4218053860
  C        17.5525148447       16.9575526753       11.4436924812
  C        16.3431179646       16.9294490459       10.7521835591
  C        19.0720866954       17.9250929515       13.1908368513
  C        19.0708244432       17.9255689257       14.6133301700
  C        17.8640961731       17.8253865291       15.3748243665
  C        46.8069306345       17.2206382341       10.1599200538
  C        45.5196699435       17.1658185588       10.9089698781
  C        45.3132291867       16.1939019971       11.8998978624
  C        44.1335797745       16.1847847858       12.6391201969
  C        43.1319428115       17.1476415654       12.4081332756
  C        43.3358841530       18.0993664983       11.3910371545
  C        44.5161310087       18.1125896194       10.6531699600
  C        41.8795577064       17.1663474697       13.1959791452
  C        41.8841073852       17.1658431022       14.6174403036
  C        43.0924404137       17.2566009986       15.3774827141
  C        20.3176679855       17.9409818522       15.3214631750
  C        20.2961831479       17.9055136892       12.5084877537
  C        46.7861379488       17.2303354361        5.8910927106
  C        45.4821500869       17.1242154193        5.1787953211
  C        45.2648483735       16.1308920687        4.2121958235
  C        44.0767781203       16.1076756572        3.4863201786
  C        43.0777964507       17.0744190157        3.7112499710
  C        43.2844706076       18.0355681587        4.7180992173
  C        44.4738154930       18.0656669087        5.4385117849
  C        41.8335604725       17.1040335375        2.9128984679
  C        41.8608777250       17.1315973612        1.4925295112
  C        43.0814656954       17.2379666248        0.7540286346
  C        46.1532285917       26.6372258951        0.7263487075
  C        46.1625514405       26.6561660881        3.5359849217
  C        14.0458474291       17.8322564052        5.7088974407
  C        15.3669315757       17.9081726999        5.0185319197
  C        15.6394594702       18.9252319751        4.0914120877
  C        16.8684050393       18.9647637694        3.4366262033
  C        17.8526760235       17.9862760090        3.6827123929
  C        17.5869018524       16.9980093917        4.6480211888
  C        16.3599678289       16.9580533674        5.3065050911
  C        19.1199846652       17.9647099217        2.9135032027
  C        19.0958704385       17.9448755058        1.4918155039
  C        17.8762008651       17.8341468827        0.7510436728
  C        28.8128951911       14.0958172614       10.3939499094
  C        28.1975907176       12.9217580388       11.0802540204
  C        28.9154999964       12.1841532080       12.0330600049
  C        28.3129694102       11.1100700315       12.6835520489
  C        26.9785924096       10.7504527281       12.4055673424
  C        26.2829569535       11.4683654817       11.4163736718
  C        26.8832781440       12.5421981988       10.7640942181
  C        26.3048116800        9.6727342529       13.1656698055
  C        26.2865948478        9.7011421470       14.5866658914
  C        26.7893904427       10.8140428165       15.3329671014
  C        32.1823990596       21.2406307083       10.1383934254
  C        32.7833678731       22.4018862988       10.8622068696
  C        32.0379829250       23.0787975577       11.8395579432
  C        32.6124446011       24.1157661537       12.5686056870
  C        33.9470700944       24.5030006280       12.3400552124
  C        34.6752966755       23.8433498596       11.3325152042
  C        34.1032779740       22.8006859660       10.6058482499
  C        34.5783596595       25.5778033781       13.1387427446
  C        34.5748778926       25.5479866618       14.5599100412
  C        34.0683718513       24.4318245617       15.2981878131
  C        25.6743349697        8.6241670043       15.3045696207
  C        25.6698549843        8.6213010369       12.4915409483
  C        32.1046159953       21.2281115585        5.8810622355
  C        32.6993898337       22.3789991163        5.1357454920
  C        31.9648337516       23.0464479056        4.1430785240
  C        32.5498779079       24.0718535652        3.4029962240
  C        33.8829830465       24.4618011507        3.6404794696
  C        34.5997502274       23.8086579667        4.6608805756
  C        34.0197901854       22.7763765157        5.3941958743
  C        34.5259249248       25.5422777539        2.8576964412
  C        34.5458769794       25.5308465821        1.4365008485
  C        34.0530688751       24.4249187175        0.6747833366
  C        40.6243917037       17.1403473115        0.7679974227
  C        40.6027143430       17.1248489847        3.5772016363
  C        28.7402289227       14.0663187843        5.8170192899
  C        28.1291319676       12.9214519640        5.0780841593
  C        28.8638510833       12.2166815507        4.1122868023
  C        28.2779888462       11.1637685735        3.4134807225
  C        26.9419517721       10.7874445908        3.6572353740
  C        26.2243477599       11.4782736511        4.6515864853
  C        26.8079537319       12.5329305118        5.3506024218
  C        26.2964536331        9.6991458736        2.8843535196
  C        26.2851233077        9.7141392547        1.4626951660
  C        26.7874812177       10.8211703390        0.7090194232
  C        18.1354377640        3.1811738801       10.3172531483
  C        17.4062668967        4.2783583597       11.0158938579
  C        16.3903635462        4.0000457798       11.9432361321
  C        15.7426946887        5.0400839170       12.6066693001
  C        16.0948728349        6.3837751565       12.3671639858
  C        17.0844881148        6.6532273901       11.4036235602
  C        17.7335487433        5.6158512032       10.7386084312
  C        15.4705009062        7.4914692479       13.1301617050
  C        15.4856949137        7.4906999736       14.5518663812
  C        16.1872780291        6.4970911494       15.3050189547
  C        42.9459990911       31.8596375578       10.0729609181
  C        43.6464206724       30.7719589655       10.8168716428
  C        44.5917394699       31.0933014677       11.8031397794
  C        45.1974737181       30.0877543299       12.5507921491
  C        44.8712994985       28.7346554205       12.3357446813
  C        43.9457970155       28.4203028283       11.3222297493
  C        43.3369714762       29.4254364638       10.5741967928
  C        45.4887538689       27.6553057077       13.1389536234
  C        45.4928363106       27.6809409766       14.5606459879
  C        44.8058082848       28.6890246490       15.3072772426
  C        14.8565957605        8.5631086071       15.2642277921
  C        14.8752625404        8.5632497612       12.4515547463
  C        42.9465596613       31.9617347252        5.8089397491
  C        43.6919134648       30.8856163695        5.0955847865
  C        44.6561670051       31.1915552103        4.1229598589
  C        45.2777553443       30.1719586351        3.4053074119
  C        44.9543022815       28.8216085550        3.6432114399
  C        44.0214125337       28.5239387726        4.6545521916
  C        43.3930918681       29.5406928451        5.3666826293
  C        45.5632854664       27.7242056590        2.8579561235
  C        45.5333192005       27.7174045551        1.4366610013
  C        44.8271035870       28.7076872040        0.6836711053
  C        35.1534710240       26.6220220845        0.7320938526
  C        35.1332696694       26.6019115443        3.5417475738
  C        18.1485621279        3.2471285774        5.7065538982
  C        17.4300933547        4.3438865435        4.9972118204
  C        16.4147587586        4.0526416911        4.0737587122
  C        15.7664716371        5.0833006550        3.3984132202
  C        16.1212896887        6.4285170417        3.6210515114
  C        17.1128880081        6.7118605695        4.5780909114
  C        17.7605580695        5.6829334165        5.2578244024
  C        15.4907533515        7.5242103169        2.8486535072
  C        15.4966027524        7.5075306458        1.4275300734
  C        16.1934778256        6.5059072621        0.6808311217
  H        10.6724168212       12.4656577222        3.9047635994
  H        11.6946360111       10.5508537301        2.6628670617
  H        15.3918570723       11.1687993753        4.7720512643
  H        14.3513872985       13.0715576355        6.0172835381
  H        13.3760396062       11.6311113029        1.2013498406
  H        50.3228633730       22.7485506849        3.9869507786
  H        49.3196952866       24.6230316188        2.6809104531
  H        45.6422155030       24.1611967459        4.8637611255
  H        46.6631881535       22.2901716775        6.1719726319
  H        47.6295404103       23.5757815298        1.2463489799
  H        14.8723487162        8.5884036788        4.6085715534
  H        50.2871179083       22.7026979475       12.0604092120
  H        49.2690864253       24.5755530292       13.3604924872
  H        45.6104018196       24.1089570373       11.1463445684
  H        46.6526101436       22.2535992458        9.8320735933
  H        47.6074720701       23.5516916612       14.7969601587
  H        40.6638931393       17.1494275439       11.4276408108
  H        48.6870269989       14.0948587743        7.8000007641
  H        10.6812713914       12.4663148034       12.0929222284
  H        11.6896076044       10.5244366997       13.2966545054
  H        15.3939747399       11.1596022199       11.2061752972
  H        14.3653739539       13.0879341919        9.9908666602
  H        13.3757294303       11.6221010446       14.7531285847
  H        47.9302410079       14.2179525802        9.7109918394
  H        47.7800963749       14.3733047443        6.4951222115
  H        49.0843355957       18.5526414032       10.8676174557
  H        10.4161247330       14.1342494438        7.9986987118
  H        24.4764119202        3.0347607900        3.9076096407
  H        25.6082227084        4.8987202264        2.6803524921
  H        23.2373819743        7.7567919146        4.8502207440
  H        22.1232146819        5.8834691307        6.0784320658
  H        23.7895639458        5.8042456481        1.2617079884
  H        36.3800168006       32.1831118014        3.9627559656
  H        35.2627824306       30.3549648614        2.6807413938
  H        37.5296067278       27.4378299447        4.8843067250
  H        38.6272731071       29.2788716652        6.1741132182
  H        37.0441254887       29.4420487224        1.2687626838
  H        25.7217020855        8.6176694127        4.6491296459
  H        36.4571230385       32.2369785486       12.1127255003
  H        35.3504182984       30.4142404013       13.4071040651
  H        37.5365245409       27.4859280098       11.1364925978
  H        38.6181821024       29.3204747646        9.8303526821
  H        37.0628467949       29.4604618153       14.8197402717
  H        46.1096090613       26.5876228558       11.3856687237
  H        44.6685156048       35.1163609092        7.8138968743
  H        24.4312734320        3.0459001361       12.0934636177
  H        25.5571607344        4.8894902131       13.3430873886
  H        23.1607256945        7.7710784286       11.2338620761
  H        22.0456802202        5.9156703489        9.9847606468
  H        23.7704098904        5.8056580808       14.8128618351
  H        44.9545583613       34.3910413087        9.6956041340
  H        44.9024310736       34.2070903951        6.4905697396
  H        40.6667007122       33.2096201881       10.8533785148
  H        23.1501980291        1.9584711878        8.0050709857
  H        25.8055268736       19.6776789450        3.9345095698
  H        23.6385025612       19.7231190913        2.6997269217
  H        22.3615059239       16.2111004602        4.8282934504
  H        24.5374318606       16.1759807895        6.0559733752
  H        23.7246711250       17.7029108741        1.2439454205
  H        35.1496620269       15.4567086599        3.9853698541
  H        37.2690930473       15.4269336439        2.6606679146
  H        38.7062515156       18.7985774016        4.9123173824
  H        36.5802542778       18.8123104428        6.2334135867
  H        37.2322239770       17.4177474978        1.2487296472
  H        20.3592521810       17.9804090441        4.6684737363
  H        35.2075305430       15.4781483545       12.0822821714
  H        37.3406278881       15.4347234178       13.3839933845
  H        38.7441079353       18.8495614154       11.1764450710
  H        36.6069420397       18.8707891009        9.8709168672
  H        37.2514881241       17.4308589591       14.7954571364
  H        35.1570647462       26.6773369071       11.3912097277
  H        28.4981999790       21.0811986324        7.8875557371
  H        25.7539508317       19.6432090424       12.1437129881
  H        23.5685381512       19.7077635047       13.3581706974
  H        22.3003247903       16.1834913656       11.2444360315
  H        24.4851395990       16.1428718710       10.0243972600
  H        23.7029144308       17.6895835755       14.7933422674
  H        28.9904223556       21.7291514362        9.7483051385
  H        29.2022384734       21.7142351069        6.5744969670
  H        32.0997204328       18.5725019348       10.9166337916
  H        27.3996195385       19.0675762834        8.0747333678
  H        14.8469333681       19.6520509221       12.1363955893
  H        17.0093862585       19.7029653162       13.3795249838
  H        18.3048468159       16.1940887752       11.2563798897
  H        16.1382963198       16.1588526452       10.0127754649
  H        16.9217227663       17.7080708365       14.8476821133
  H        46.0939811228       15.4595044937       12.0834132646
  H        43.9723981682       15.4234587310       13.3991383740
  H        42.5697916500       18.8503248886       11.2095807764
  H        44.6914424100       18.8613166923        9.8842954853
  H        44.0346464281       17.3721670606       14.8493778491
  H        20.2899668514       17.9309704472       11.4202511874
  H        46.0428809337       15.3928962097        4.0307401663
  H        43.9101790298       15.3382323742        2.7356081407
  H        42.5167661708       18.7852120784        4.8980142151
  H        44.6566515067       18.8273896984        6.1923768143
  H        44.0152545945       17.3381389572        1.2996496150
  H        46.1996706217       26.6828223804        4.6234180270
  H        52.7412269905       21.0626360748        8.1946921398
  H        14.8783352362       19.6786422967        3.9008090551
  H        17.0787314661       19.7566279870        2.7209243904
  H        18.3379925201       16.2360215579        4.8459080149
  H        16.1397318842       16.1821648972        6.0356919891
  H        16.9429893736       17.7234462401        1.2950127202
  H        52.3224161371       21.6732653012        6.2943106820
  H        52.0134539102       21.7022267026        9.4956731710
  H        49.0676351190       18.6076745207        5.2041251875
  H        13.2476602095       19.0162501124        7.9773059928
  H        29.9428985206       12.4682706962       12.2501338872
  H        28.8712591509       10.5370133893       13.4207055731
  H        25.2519466812       11.2006682305       11.1943932402
  H        26.3438795474       13.1181593858       10.0162262659
  H        27.1532689335       11.6827741230       14.7927079510
  H        31.0122002844       22.7662686226       12.0207574694
  H        32.0295796447       24.6423559007       13.3212378304
  H        35.7083709909       24.1332484362       11.1515987419
  H        34.6696712646       22.2648856266        9.8475083539
  H        33.7143571995       23.5639500867       14.7492098365
  H        25.7044637400        8.6001595107       11.4037016597
  H        30.9343620603       22.7460426076        3.9658767739
  H        31.9736609108       24.5937077321        2.6417648387
  H        35.6310457670       24.0996511414        4.8499485928
  H        34.5779968905       22.2491975847        6.1645216055
  H        33.6888069647       23.5508101951        1.2067157384
  H        40.5947453580       17.0764589474        4.6644145763
  H        32.5163001357       14.1465596802        8.2604883935
  H        29.8971001755       12.5021136967        3.9283241609
  H        28.8552619506       10.6144762786        2.6728771793
  H        25.1907967913       11.1997879784        4.8469497129
  H        26.2509797454       13.0822312876        6.1059873863
  H        27.1489615621       11.6955468373        1.2423937154
  H        33.2991499000       14.1934732747        6.4410267682
  H        33.4099732510       14.4042214504        9.6070533024
  H        32.1628038756       18.5585259112        5.1965545370
  H        30.2250635783       14.1900407154        8.0750485650
  H        16.1180953652        2.9635746297       12.1295001477
  H        14.9530966642        4.8208190857       13.3221986393
  H        17.3672294465        7.6860596650       11.2107357004
  H        18.5158299298        5.8184897882       10.0110195177
  H        16.7539899257        5.7398655635       14.7715193872
  H        44.8279016708       32.1403915275       11.9774632869
  H        45.9372244311       30.3415507907       13.3068362826
  H        43.6834626072       27.3781906815       11.1518248331
  H        42.6007025997       29.1900889469        9.8092057883
  H        44.2306563355       29.4369348891       14.7689589660
  H        14.8516567169        8.5465757699       11.3633299582
  H        44.8994820248       32.2342467970        3.9312669580
  H        46.0244095384       30.4132357328        2.6518360455
  H        43.7649745098       27.4841626523        4.8465579198
  H        42.6471175089       29.3178939305        6.1256373984
  H        44.2687792418       29.4707262192        1.2182236864
  H        35.0881433883       26.6160081756        4.6290897746
  H        36.6052894133       35.1341012691        8.1806586718
  H        16.1435338048        3.0130885338        3.9041316564
  H        14.9740148733        4.8565588725        2.6884425779
  H        17.3965979524        7.7472990940        4.7548308015
  H        18.5436641638        5.8933895326        5.9823403511
  H        16.7650019817        5.7557363490        1.2192712833
  H        36.2785243081       34.4827678575        6.2728821865
  H        36.3811040297       34.2091455726        9.4995474269
  H        40.5813836758       33.2033924501        5.1530600424
  H        17.4707874078        1.9477812732        7.9741930128
  H        29.0807019522       19.3799920581       12.4339535619
  H        29.3131381555       19.3970432836        3.5558342479
  H        30.8327914564       15.4089027814        3.7926723670
  H        31.3650497870       15.6730727431       12.5275605300
  H        27.9896321256       18.3054825585       14.6576277262
  H        29.6943004757       15.3078198444       14.5675835596
  H        31.9025933880       18.9826560163        1.0629887686
  H        32.8490036565       16.7276430484        1.6252800836
  H        28.3559963951       17.3019980644        2.3087891040
  H        32.2287828732       18.7285214583       14.4483975749
  H        18.8542150160        0.8692748220       12.3352764859
  H        40.5283228582       35.2290665074        3.9518874501
  H        42.3253188174       34.4200552250        3.5896632194
  H        22.0878265639        0.6920975713       12.3518234760
  H        11.5969289461       18.7128511909       12.3825302642
  H        52.2647459143       18.4311527478        3.6770578075
  H        49.2551135605       16.4768760313        3.5845475621
  H        10.1500289540       15.7981542093       12.2928748340
  H        50.8499227473       17.6923768801        3.9542379903
  H        10.0460949893       17.3944483502       12.0519629984
  H        20.2157483701        0.0024819428       12.0418434943
  H        39.1842108772       36.1250439971        3.6867707914
 Ni        30.8597702615       17.6214123889        2.7526714129
 Ni        31.4100663281       16.4779008187       -0.3276577371
 Ni        29.9283185620       19.2324389861       -0.3294459331
 Ni        30.2641111966       17.5729432896       13.2365657637
  O        10.6499873209       14.3650917970        5.4858268929
  O        12.6131909169       14.6575597994        6.5839018053
  O        49.1481722778       16.8458511101        7.9897144515
  O        50.3502684358       20.9359333190        5.6480563971
  O        48.3485516581       20.5933745897        6.6658806603
  O        11.0518404835       17.0537713829        6.5007291669
  O        50.3210132848       20.8816995007       10.4068970084
  O        48.3467369421       20.5868443810        9.3271807246
  O        49.5437962424       18.2484021498       10.0682911083
  O        12.3591486671       18.6245908012        7.9996909845
  O        48.6933249689       14.1485126984        6.7513120670
  O         8.2098966026       14.2103704163        9.3225454375
  O        10.7353757843       14.5067389051       10.6642979778
  O        12.5718189273       14.5828527618        9.3284797882
  O        22.8444077123        2.0434322215        5.4871425445
  O        21.6049450688        3.5919204893        6.5901100532
  O        42.0584539327       34.1377091167        7.9790202669
  O        37.9817621840       33.1375457556        5.5723435012
  O        39.2184936551       31.5762775778        6.6670344131
  O        20.3084877974        1.0396699461        6.5021553916
  O        38.0246996158       33.1857824624       10.4152658101
  O        39.2196028844       31.5841372374        9.3259169150
  O        40.6523853595       33.7695131082       10.0602330932
  O        18.2553184850        1.3763898885        7.9967960735
  O        44.6222388216       35.1005921567        6.7587689498
  O        24.2054454356        0.0000528856        9.3207764801
  O        22.7528939709        2.0582923280       10.5839529543
  O        21.6241216033        3.5957434522        9.3420515038
  O        27.5008467275       18.7514009785        5.4888339302
  O        26.7644136697       16.9361260752        6.6511017091
  O        30.6667629503       19.4083245122        8.0085179803
  O        33.5904797910       16.2768521205        5.6672177649
  O        34.2775229526       18.1698389876        6.7334890348
  O        29.5779525617       17.0593680017        6.5759826591
  O        33.6262694959       16.3294716545       10.4065317287
  O        34.3068620557       18.2495093028        9.4038606024
  O        31.6598649529       18.3214914514       10.0878513599
  O        30.3245864366       15.1560436681        8.0823077269
  O        28.5531609620       21.0334544484        6.8325181526
  O        28.5116153407       20.9591116393        9.3983138029
  O        27.4570250262       18.6797412867       10.6568038998
  O        26.6940356417       16.9285789813        9.4117937735
  O        13.1484242750       18.6930903190       10.5873071252
  O        13.9196035804       16.9163590980        9.4052673271
  O        50.5964150775       19.3503379105        8.0204563739
  O        47.6835016812       16.3270730980       10.4172623228
  O        46.9526215592       18.1761428213        9.3239432092
  O        11.0698862451       17.0154270636        9.4896109440
  O        47.6766586567       16.3353898807        5.6533057894
  O        46.9283465874       18.2357225610        6.6652044456
  O        49.5688976594       18.3177155537        5.9822884196
  O        10.3186946802       15.1000933667        7.9970773506
  O        52.6707851626       21.0278884388        9.2418120030
  O        12.1468413205       20.8911851358        6.6732190189
  O        13.1080527047       18.6136798647        5.3256131388
  O        13.9575080202       16.9871405323        6.6651578807
  O        29.9949718688       14.4479727324       10.7337442348
  O        28.0906876138       14.6539456425        9.4945991043
  O        32.1414818216       16.8538655092        8.0725835674
  O        30.9689581642       20.9571257790       10.4018546578
  O        32.9496812938       20.6009079934        9.3336507338
  O        29.5683528968       17.0745448574        9.5739267516
  O        30.8753761792       20.9483800368        5.6574706314
  O        32.8800421441       20.5864240211        6.6623329522
  O        31.6882046117       18.2468759569        5.9827923519
  O        28.2874822183       18.6750777203        8.0667346990
  O        32.4940169314       14.2134238083        9.3317432570
  O        32.4062353518       14.2109872397        6.8239179328
  O        29.9163839540       14.4387097142        5.4844420340
  O        28.0405021473       14.5874281654        6.7514187614
  O        17.8892359503        1.9666748260       10.6628263910
  O        18.9561833453        3.5271661384        9.4080062733
  O        39.1686602809       34.1389480258        7.9972086231
  O        43.2802364344       33.0590230077       10.3317510192
  O        42.0345938683       31.5064600192        9.2416515026
  O        20.3178486339        1.0368962746        9.4800749838
  O        43.2760943096       33.1826570170        5.5748946998
  O        42.0053166904       31.5841160414        6.5829596892
  O        40.5790241303       33.7751346034        5.9358377533
  O        22.3674645523        1.3846849289        7.9979684971
  O        36.6728084298       35.0998161723        9.2332961839
  O        16.4456567154        0.0642909037        6.6682825271
  O        17.9365190895        2.0433854937        5.3263585809
  O        18.9189673241        3.5931670361        6.6659042162
  O        29.9113035057       18.8253407457        4.0665255504
  O        29.8210665091       18.9865571016       11.9293471664
  O        31.3364345373       16.1962953542        4.0725951438
  O        31.4251862121       16.4854455685       11.9837400505
  O        32.1508585869       17.2898992196        1.2458868590
  O        29.1007956284       17.0016713232        1.7525514008
  O        30.4536556254       15.8221478884       14.2471543170
  O        31.4009317531       18.3049747187       14.7277719551
  O        31.1398036926       19.6353259315        1.1594520505
  O        28.8189480172       18.6808958360       14.3201685625
  O        39.4570370005       35.2441546946        4.0019226683
  O        19.1420807230        0.0048102780       11.9904764244
  O        41.9695373200       35.1726982532        4.0871200447
  O        21.6914003679       -0.0692878700       11.8960744577
  O        51.3649921557       18.6142698707        4.0053852468
  O        10.7511548852       18.7471950416       11.9049460416
  O        50.0795989289       16.4128001680        4.0917270287
  O         9.5243103011       16.4830862031       11.9912184953
 Zr         9.2972513361       16.0526001730        6.1825116166
 Zr        49.8365032143       16.0065325593        9.7463423304
 Zr        22.0737401267        0.0307313726        6.1888331277
 Zr        42.4614596265       35.1542912547        9.8011744306
 Zr        29.6130224061       19.0705363546        6.2568255374
 Zr        29.5809723702       19.1884539883        9.8292199203
 Zr        11.0383244635       19.0517567997        9.8277427078
 Zr        11.0442243669       19.1546402292        6.2509549864
 Zr        31.3596261726       16.1090669534        9.8799196695
 Zr        31.4039187782       16.0052292113        6.2843258790
 Zr        18.6016899735       -0.0003612010        9.7633457069
 Zr        18.5069179607       -0.0068174607        6.2138731637
 Zr        12.3024983682       16.3235581716        7.9903457793
 Zr        48.6171476254       18.8331108050        8.0102208570
 Zr        20.3155135776        2.4743439683        7.9905228899
 Zr        40.6445376493       32.6881779709        7.9782673451
 Zr        28.3508323839       16.3419057090        8.0915073090
 Zr        32.6329958214       18.8338254059        8.0482342237
  H        29.1034363429       17.6098775509        0.9567215332
  H        31.4748286825       20.5376231184        1.3009454665
  H        28.8003452558       19.7899528157        0.3843085509
  H        31.3463508658       15.2005601003        0.3297710198
