     573
 i =      135, E =     -4762.8076465918
  C        11.8587499046       14.0535509491        5.7415576554
  C        12.4562668939       12.8906113930        5.0232853258
  C        11.7045819119       12.1716867025        4.0816098993
  C        12.2809707785       11.1094926549        3.3892546410
  C        13.6215513082       10.7396917024        3.6169854187
  C        14.3547169029       11.4432773515        4.5904488519
  C        13.7818161710       12.5082431611        5.2819705218
  C        14.2610821762        9.6490255882        2.8435822946
  C        14.2562805476        9.6568773725        1.4218794042
  C        13.7430553961       10.7589684115        0.6679669587
  C        49.1266385082       21.2332302439        5.8797633830
  C        48.5498575928       22.4011506336        5.1526782511
  C        49.2999052288       23.0684534133        4.1716800795
  C        48.7330003988       24.1075875789        3.4384602171
  C        47.4024694463       24.5092687077        3.6670767263
  C        46.6714903070       23.8604029773        4.6805767481
  C        47.2339175584       22.8154947051        5.4099493516
  C        46.7722866190       25.5869837397        2.8697790094
  C        46.7613358596       25.5573804471        1.4480144086
  C        47.2612186330       24.4422535805        0.7045348188
  C        14.8602188309        8.5705399592        0.7086095567
  C        14.8919724472        8.5971348219        3.5202251897
  C        49.1131901091       21.2033824351       10.1453689484
  C        48.5278312519       22.3647505283       10.8725263177
  C        49.2670668129       23.0254564642       11.8654463922
  C        48.6907598138       24.0600279873       12.5968984677
  C        47.3603528372       24.4568259402       12.3586573006
  C        46.6399144119       23.8119047919       11.3351619046
  C        47.2134441857       22.7759713333       10.6033944479
  C        46.7219399688       25.5318299449       13.1496690198
  C        46.7336422526       25.5282003207       14.5713737962
  C        47.2489888498       24.4289559250       15.3277721798
  C        40.6190094485       17.0953560132       15.3080004630
  C        40.6264503479       17.1093580040       12.4982966425
  C        11.8828883590       14.0865233279       10.2854780035
  C        12.4721480556       12.9106660449       10.9896500612
  C        11.7146709992       12.1776153488       11.9159166277
  C        12.2812193080       11.0951385034       12.5843277538
  C        13.6199675535       10.7212191307       12.3523591919
  C        14.3578674568       11.4365939690       11.3913496867
  C        13.7924818385       12.5177859918       10.7186588244
  C        14.2535674002        9.6244763919       13.1227854788
  C        14.2523170683        9.6444629465       14.5446301702
  C        13.7424547852       10.7534118711       15.2917119915
  C        22.5137185438        3.2455332391        5.7520160375
  C        23.2318289935        4.3489238889        5.0512856719
  C        24.2290819631        4.0643258264        4.1063479422
  C        24.8617028186        5.1001395747        3.4233868916
  C        24.5136203793        6.4443232292        3.6640087755
  C        23.5439673390        6.7203810716        4.6456121339
  C        22.9067882158        5.6862719148        5.3273323724
  C        25.1259010955        7.5478141089        2.8873580677
  C        25.1021221508        7.5393120040        1.4653053815
  C        24.3995023170        6.5410773924        0.7182591281
  C        38.3018342998       31.9303385492        5.8494349136
  C        37.5695733360       30.8422725143        5.1401560712
  C        36.6096511127       31.1489241746        4.1635741048
  C        35.9892619676       30.1306572488        3.4451882598
  C        36.3140085859       28.7806885648        3.6820428771
  C        37.2443572210       28.4814695163        4.6951098327
  C        37.8688953100       29.4985095750        5.4123314037
  C        35.7092497835       27.6904162931        2.8844878097
  C        35.7427878378       27.7035370687        1.4631133685
  C        36.4495600116       28.7052090724        0.7258200679
  C        25.7278398854        8.6080173993        0.7452770733
  C        25.7242556838        8.6227489326        3.5574859484
  C        38.3287744173       31.9618988097       10.1562212304
  C        37.6074418861       30.8879265466       10.8977997991
  C        36.6758863570       31.1954351413       11.9011820770
  C        36.0661105964       30.1761784597       12.6300543484
  C        36.3737750430       28.8238743005       12.3794541017
  C        37.2830313121       28.5262700252       11.3459331115
  C        37.8946467043       29.5420161576       10.6181148582
  C        35.7664691468       27.7243432941       13.1638175915
  C        35.7723781617       27.7207026429       14.5859345730
  C        36.4628600550       28.7139712284       15.3490631538
  C        46.1356772517       26.6208729560       15.2814911002
  C        46.0880138373       26.5801947866       12.4735971338
  C        22.4636753923        3.2562428758       10.2570246483
  C        23.1640239453        4.3633681554       10.9769829243
  C        24.1703019929        4.0740198933       11.9125538365
  C        24.8049064618        5.1017057376       12.6062913064
  C        24.4537316280        6.4490128647       12.3878532327
  C        23.4707103601        6.7316181612       11.4204145876
  C        22.8316926659        5.7041733017       10.7267392361
  C        25.0898082421        7.5445824571       13.1621555238
  C        25.0841591917        7.5370315890       14.5851384866
  C        24.3889703121        6.5410383519       15.3412907575
  C        26.6208318747       17.8617469088        5.7789448824
  C        25.3141882377       17.9124354893        5.0579128479
  C        25.0493632302       18.9167139447        4.1135143711
  C        23.8363162890       18.9375694416        3.4279078515
  C        22.8508865379       17.9577148161        3.6654645831
  C        23.1117453628       16.9760187348        4.6400619216
  C        24.3269903339       16.9493212084        5.3225051949
  C        21.5776756453       17.9439144130        2.9005110570
  C        21.5784181940       17.9239851968        1.4779199589
  C        22.7847650879       17.8025192159        0.7182476532
  C        34.4383891639       17.1896867879        5.9095760449
  C        35.7321219235       17.1333268208        5.1706286287
  C        35.9355611028       16.1654987381        4.1744763751
  C        37.1164515809       16.1516457314        3.4378920049
  C        38.1264585335       17.1038112223        3.6774919713
  C        37.9266387878       18.0505001009        4.7004761346
  C        36.7428994970       18.0704069459        5.4341286482
  C        39.3788411792       17.1135611436        2.8877879025
  C        39.3694686746       17.1235440018        1.4658318989
  C        38.1598082131       17.2449672254        0.7120424327
  C        20.3319949506       17.9406252996        0.7688061652
  C        20.3526842205       17.9447079999        3.5823623270
  C        34.4375895526       17.2391250482       10.1856770027
  C        35.7349146727       17.1440330586       10.9141021947
  C        35.9382453862       16.1682721999       11.9012822969
  C        37.1292355240       16.1380325029       12.6227780565
  C        38.1457836688       17.0820723680       12.3772553343
  C        37.9476178803       18.0314708596       11.3571368344
  C        36.7561655589       18.0670893502       10.6391086339
  C        39.3969613914       17.0973540361       13.1676910311
  C        39.3789306045       17.1155511391       14.5891525745
  C        38.1644105860       17.2398210246       15.3351916954
  C        35.1412360356       26.6422163383       15.2904236270
  C        35.1805415672       26.6508302662       12.4813143028
  C        26.5738048899       17.8295594566       10.3232994985
  C        25.2588443075       17.8721419148       11.0310755725
  C        24.9884641227       18.8860287079       11.9625972400
  C        23.7713488369       18.9113201477       12.6379679533
  C        22.7940227903       17.9232844361       12.4042571013
  C        23.0582549033       16.9339164701       11.4399894330
  C        24.2766617809       16.9061664582       10.7636028852
  C        21.5300002873       17.9072565296       13.1774912410
  C        21.5538740198       17.9039968762       14.5990920214
  C        22.7725151416       17.7932152395       15.3416422047
  C        14.0469738551       17.8287643817       10.2891396822
  C        15.3515431028       17.8858682284       11.0147592305
  C        15.6088075323       18.8900486273       11.9612521498
  C        16.8178223818       18.9112493014       12.6542240412
  C        17.8043010975       17.9310766692       12.4232540203
  C        17.5516929950       16.9509507649       11.4447664108
  C        16.3421564735       16.9252490619       10.7532385441
  C        19.0735728858       17.9151314756       13.1924623797
  C        19.0722863999       17.9160835279       14.6150418036
  C        17.8651709445       17.8186538642       15.3763452018
  C        46.8017850596       17.2162402748       10.1566025486
  C        45.5073138262       17.1466419017       10.8957525286
  C        45.3004694718       16.1639860896       11.8764730000
  C        44.1157304003       16.1378932204       12.6078260626
  C        43.1063934032       17.0942300686       12.3815261944
  C        43.3095538379       18.0551110224       11.3723656744
  C        44.4952594133       18.0851837082       10.6418307902
  C        41.8533736918       17.1011018494       13.1723573816
  C        41.8634258683       17.1062448887       14.5947005628
  C        43.0745381947       17.2052235251       15.3495041103
  C        20.3189725827       17.9295701703       15.3236724477
  C        20.2981202104       17.8930056106       12.5106123336
  C        46.7855321318       17.2325364856        5.8859966132
  C        45.4848967055       17.1286010509        5.1646730419
  C        45.2696841941       16.1315724418        4.2008976929
  C        44.0831467798       16.1036803216        3.4719846399
  C        43.0815431149       17.0699261002        3.6890983901
  C        43.2882212283       18.0381659654        4.6896318270
  C        44.4757171820       18.0722687750        5.4139420082
  C        41.8335171195       17.0882069459        2.8941092602
  C        41.8535149691       17.0984542629        1.4727054319
  C        43.0699325469       17.1989058202        0.7265880814
  C        46.1534108474       26.6373022942        0.7262512879
  C        46.1623712762       26.6561318696        3.5358931710
  C        14.0457195731       17.8322605974        5.7090421883
  C        15.3670133503       17.9080945350        5.0190500894
  C        15.6398035057       18.9246750418        4.0915152211
  C        16.8689020659       18.9636961651        3.4369456907
  C        17.8529716358       17.9852899524        3.6839524494
  C        17.5870740139       16.9977376453        4.6499260191
  C        16.3599792386       16.9582286007        5.3080603154
  C        19.1203672059       17.9622423446        2.9149994153
  C        19.0966838723       17.9392177693        1.4934522400
  C        17.8770797628       17.8289411896        0.7525267789
  C        28.8148929414       14.0872123188       10.3621828967
  C        28.2116156225       12.9139809401       11.0585576805
  C        28.9423854732       12.1727859800       11.9991272510
  C        28.3478708695       11.0987994768       12.6579720314
  C        27.0097469471       10.7390082321       12.3977885420
  C        26.3009717466       11.4607167797       11.4203634362
  C        26.8917326374       12.5364205724       10.7625045429
  C        26.3450447089        9.6562527745       13.1602651115
  C        26.3342372715        9.6807127510       14.5813790132
  C        26.8370043326       10.7936247718       15.3270377560
  C        32.1828197893       21.2368196824       10.1404846374
  C        32.7813957910       22.3972017325       10.8645391665
  C        32.0331145687       23.0765498116       11.8382341868
  C        32.6040650013       24.1156337520       12.5664678580
  C        33.9390278862       24.5038536588       12.3418963193
  C        34.6703769683       23.8423729206       11.3374154432
  C        34.1017964413       22.7975235189       10.6111367942
  C        34.5659814624       25.5811411098       13.1414311571
  C        34.5536074975       25.5557494429       14.5631742429
  C        34.0444136036       24.4413374846       15.3020795811
  C        25.7234923854        8.6030035760       15.3001109476
  C        25.7061217688        8.6067584279       12.4865568329
  C        32.1467144552       21.1998386508        5.8744725490
  C        32.7108655736       22.3657407017        5.1348273627
  C        31.9676624258       23.0204164367        4.1407226296
  C        32.5355664792       24.0587128144        3.4056587191
  C        33.8603509635       24.4728078054        3.6469679409
  C        34.5845302988       23.8344373809        4.6719869868
  C        34.0218576342       22.7914967341        5.4016683685
  C        34.4947342118       25.5563705418        2.8615737478
  C        34.5150957602       25.5437356126        1.4397844472
  C        34.0246982110       24.4361626502        0.6788574475
  C        40.6136802877       17.0955511896        0.7530109395
  C        40.6046433625       17.1127769275        3.5631990583
  C        28.7253984241       14.1017788221        5.7778002424
  C        28.1277542162       12.9481361796        5.0473911786
  C        28.8675273944       12.2572138665        4.0758328556
  C        28.2990564977       11.1852834427        3.3922421182
  C        26.9733574702       10.7814557906        3.6501926053
  C        26.2515833128       11.4607665635        4.6497405431
  C        26.8198858862       12.5299366459        5.3389044342
  C        26.3380215518        9.6849765445        2.8802649510
  C        26.3304808784        9.6963841741        1.4579864670
  C        26.8315250244       10.8032780782        0.7029341261
  C        18.1355332050        3.1810568168       10.3170935377
  C        17.4061502595        4.2782822699       11.0156454195
  C        16.3904434348        3.9998598606       11.9431629883
  C        15.7426624407        5.0397937026       12.6066717041
  C        16.0945005546        6.3835405070       12.3670136363
  C        17.0838643341        6.6531223662       11.4032466293
  C        17.7330258189        5.6158245947       10.7381785102
  C        15.4701052439        7.4911909509       13.1300853185
  C        15.4853891093        7.4905041786       14.5518054118
  C        16.1870207843        6.4969395650       15.3049749419
  C        42.9459045431       31.8595733980       10.0728782064
  C        43.6463342344       30.7718971198       10.8168004670
  C        44.5919001714       31.0932395857       11.8028309571
  C        45.1976602807       30.0877048427       12.5504722103
  C        44.8712369326       28.7346331535       12.3356512515
  C        43.9453831832       28.4202677255       11.3224700298
  C        43.3365281085       29.4254009116       10.5744447514
  C        45.4888325859       27.6553460605       13.1388523360
  C        45.4930176339       27.6810118781       14.5605463118
  C        44.8059855586       28.6891069582       15.3071552004
  C        14.8563860868        8.5629784108       15.2641722980
  C        14.8747981660        8.5629470620       12.4514988208
  C        42.9465007360       31.9616881090        5.8089967202
  C        43.6917427531       30.8855629231        5.0954952666
  C        44.6563113611       31.1914831487        4.1231742591
  C        45.2778608773       30.1718979183        3.4054643221
  C        44.9541042747       28.8215698750        3.6430798730
  C        44.0206295941       28.5238988461        4.6538676691
  C        43.3923513155       29.5406576667        5.3660423435
  C        45.5631398562       27.7241641948        2.8578326495
  C        45.5334814849       27.7174913052        1.4365317561
  C        44.8272393482       28.7077570555        0.6835489766
  C        35.1237976065       26.6348968232        0.7353722488
  C        35.1031093088       26.6161253931        3.5450115193
  C        18.1487805114        3.2470993955        5.7066289538
  C        17.4302337798        4.3439615499        4.9973530822
  C        16.4148695088        4.0526944607        4.0739415725
  C        15.7665647804        5.0833131886        3.3985356641
  C        16.1213796251        6.4285402088        3.6210860577
  C        17.1129615562        6.7119280334        4.5781312768
  C        17.7606465998        5.6830211466        5.2579153976
  C        15.4907911525        7.5241975118        2.8486363469
  C        15.4965457953        7.5074989037        1.4274980306
  C        16.1933057211        6.5058006914        0.6807918681
  H        10.6724454068       12.4657959996        3.9045949449
  H        11.6946812820       10.5509999957        2.6627247747
  H        15.3917728174       11.1687422565        4.7721430373
  H        14.3513175455       13.0714862000        6.0173631121
  H        13.3760715643       11.6311082860        1.2012706361
  H        50.3226019344       22.7483778712        3.9869465214
  H        49.3194888443       24.6228339281        2.6808726006
  H        45.6419955784       24.1611824127        4.8637240029
  H        46.6628718647       22.2902557290        6.1720209291
  H        47.6296426784       23.5758303376        1.2462241061
  H        14.8724637422        8.5884586154        4.6085350239
  H        50.2871065466       22.7025860365       12.0603502334
  H        49.2691530996       24.5754788641       13.3604036711
  H        45.6104970548       24.1091220135       11.1461284497
  H        46.6525670966       22.2537784726        9.8318913534
  H        47.6076913925       23.5517960362       14.7968894866
  H        40.6286639464       17.0726214417       11.4105449945
  H        48.6870336238       14.0950018309        7.7999929062
  H        10.6812525741       12.4668064039       12.0934301307
  H        11.6894468130       10.5248477576       13.2971220315
  H        15.3932463817       11.1585894483       11.2052935883
  H        14.3648158169       13.0870262752        9.9900231840
  H        13.3756264928       11.6220268729       14.7530794820
  H        47.9300895476       14.2185971759        9.7108830911
  H        47.7799633947       14.3735706380        6.4952412028
  H        49.0826424609       18.5518793513       10.8670822849
  H        10.4159606724       14.1343905664        7.9988043270
  H        24.4866848731        3.0245533788        3.9174285240
  H        25.6352139206        4.8774366100        2.6915816936
  H        23.2666629359        7.7546385536        4.8386773975
  H        22.1366102825        5.8919080927        6.0668067554
  H        23.8366766914        5.7850172983        1.2579333338
  H        36.3748817130       32.1928403640        3.9696122524
  H        35.2447183879       30.3718805849        2.6897072350
  H        37.5026878175       27.4416587294        4.8845927613
  H        38.6128971520       29.2755215210        6.1734131556
  H        37.0127218178       29.4564113267        1.2718895603
  H        25.7568112449        8.6072339528        4.6454290903
  H        36.4505297492       32.2393419838       12.1073693690
  H        35.3381771827       30.4203265894       13.4005948693
  H        37.5327060818       27.4864244663       11.1455934812
  H        38.6190917128       29.3171412505        9.8391679947
  H        37.0372409150       29.4716046013       14.8237866138
  H        46.1094017640       26.5875606790       11.3855610400
  H        44.6683071549       35.1161869167        7.8139557191
  H        24.4458720377        3.0348963888       12.0777336244
  H        25.5884315608        4.8695419575       13.3244775062
  H        23.1876147559        7.7670381538       11.2421389490
  H        22.0572208228        5.9205078301        9.9944423153
  H        23.8175845770        5.7855457944       14.8098390220
  H        44.9536654957       34.3902282686        9.6950656923
  H        44.9015063819       34.2067293175        6.4906335698
  H        40.6660153397       33.2092293671       10.8531222548
  H        23.1508065192        1.9580262207        8.0048014045
  H        25.8058880136       19.6765571390        3.9323334909
  H        23.6360337628       19.7219676264        2.7011266889
  H        22.3634621925       16.2096332536        4.8316077937
  H        24.5395947013       16.1758404360        6.0566745248
  H        23.7253601132       17.6837430792        1.2485579716
  H        35.1510449792       15.4367179805        3.9853474069
  H        37.2719435909       15.3948199447        2.6721956350
  H        38.6983155354       18.7937469843        4.8900814505
  H        36.5721098660       18.8171354384        6.2061191438
  H        37.2220063500       17.3738293588        1.2450162564
  H        20.3590946948       17.9828638741        4.6702984765
  H        35.1461239355       15.4505710252       12.1017438690
  H        37.2844846887       15.3781819765       13.3855401890
  H        38.7249101071       18.7673299212       11.1619291591
  H        36.5838018020       18.8184800295        9.8724159594
  H        37.2299618820       17.3644371219       14.7956291765
  H        35.1556792974       26.6745300296       11.3934940523
  H        28.4986526652       21.0796909453        7.8798082024
  H        25.7449976085       19.6476621087       12.1374163212
  H        23.5614612641       19.7017395269       13.3554106909
  H        22.3120798394       16.1641796784       11.2536604641
  H        24.4959797915       16.1307320332       10.0334880380
  H        23.7039373987       17.6685027558       14.7974459669
  H        29.0059320016       21.7261028381        9.7363517385
  H        29.1972086622       21.7256229812        6.5753411372
  H        32.0933588649       18.5691424772       10.9051559051
  H        27.4048134657       19.0755057058        8.0608861953
  H        14.8507575195       19.6496932935       12.1386063669
  H        17.0131411486       19.6964637266       13.3814304946
  H        18.3024202699       16.1859832053       11.2571154743
  H        16.1361376589       16.1551489725       10.0136406538
  H        16.9227460200       17.7021750141       14.8491410242
  H        46.0857318188       15.4343663506       12.0598494011
  H        43.9580038223       15.3686739932       13.3606722441
  H        42.5389399799       18.8016988825       11.1917061993
  H        44.6672615278       18.8423894358        9.8803819896
  H        44.0145336624       17.3177908026       14.8169005210
  H        20.2924352113       17.9184458950       11.4223585694
  H        46.0475716402       15.3919731294        4.0253316705
  H        43.9192382758       15.3287817945        2.7262872892
  H        42.5205764498       18.7892825444        4.8637690212
  H        44.6552870423       18.8384027283        6.1642127463
  H        44.0064970004       17.3057139335        1.2662731413
  H        46.1991745804       26.6826665761        4.6233402339
  H        52.7410966686       21.0625839168        8.1946764921
  H        14.8786957834       19.6779404876        3.9002576378
  H        17.0794288389       19.7550067194        2.7206895463
  H        18.3381893161       16.2359470815        4.8484715541
  H        16.1394732697       16.1828315209        6.0376813130
  H        16.9435810379       17.7203809891        1.2964604541
  H        52.3220544928       21.6731619562        6.2944306627
  H        52.0129954181       21.7018684582        9.4956260340
  H        49.0675756309       18.6078582854        5.2040572048
  H        13.2474633489       19.0162898351        7.9774611529
  H        29.9747172200       12.4513801482       12.1993208583
  H        28.9163953739       10.5245955273       13.3863971058
  H        25.2670392882       11.1936496484       11.2116244829
  H        26.3408188087       13.1142065448       10.0244744922
  H        27.1999799669       11.6626033692       14.7866242372
  H        31.0074422434       22.7646725497       12.0191105732
  H        32.0186173571       24.6416230825       13.3173732187
  H        35.7038380338       24.1322512826       11.1588474518
  H        34.6719828517       22.2619217961        9.8555850065
  H        33.6934787115       23.5697654315       14.7568625139
  H        25.7333402444        8.5892632919       11.3984278230
  H        30.9479393896       22.6955651396        3.9482661496
  H        31.9531804308       24.5656162315        2.6393565874
  H        35.6097783868       24.1434719241        4.8647624957
  H        34.5882481652       22.2758144103        6.1733731574
  H        33.6588057231       23.5601749925        1.2070001916
  H        40.6014141458       17.0773213188        4.6509650619
  H        32.5127800947       14.1457020149        8.2398103148
  H        29.8888320101       12.5720005372        3.8743453048
  H        28.8814312142       10.6444654554        2.6494917142
  H        25.2255777943       11.1628254593        4.8556764661
  H        26.2587336407       13.0691744898        6.0982579968
  H        27.1875412195       11.6807077891        1.2348585879
  H        33.2911415340       14.1859505281        6.4328586700
  H        33.4086434402       14.3997077697        9.5962227827
  H        32.0943109686       18.5230686957        5.0850415397
  H        30.2144866566       14.1887320093        8.0608366142
  H        16.1184637501        2.9633351161       12.1295576356
  H        14.9532320362        4.8203663984       13.3223373231
  H        17.3662832160        7.6860076939       11.2101676164
  H        18.5150814629        5.8185494659       10.0103676488
  H        16.7536425863        5.7396496084       14.7714718281
  H        44.8281810714       32.1403271628       11.9769923370
  H        45.9375623791       30.3414819013       13.3063743030
  H        43.6826934768       27.3781924360       11.1523767952
  H        42.5999230924       29.1900400499        9.8097762878
  H        44.2307009136       29.4369140534       14.7688320361
  H        14.8510743160        8.5461955775       11.3632776012
  H        44.8998606680       32.2341662329        3.9317381689
  H        46.0247685916       30.4131457257        2.6522350942
  H        43.7636984752       27.4841640378        4.8454459435
  H        42.6459020152       29.3178486940        6.1245319057
  H        44.2687805958       29.4706949322        1.2181112669
  H        35.0592890674       26.6299190072        4.6324134158
  H        36.6052780330       35.1341332655        8.1806730439
  H        16.1436690382        3.0131254930        3.9043680793
  H        14.9741286200        4.8564831518        2.6885706056
  H        17.3966814089        7.7473735851        4.7548157699
  H        18.5437361247        5.8934999515        5.9824442781
  H        16.7648520459        5.7556403167        1.2192240787
  H        36.2790448973       34.4823405991        6.2732678964
  H        36.3816021982       34.2088925382        9.4995516178
  H        40.5803012810       33.2028799477        5.1534718270
  H        17.4711819312        1.9476276022        7.9742234049
  H        29.1988147579       19.4664150556       12.4743254936
  H        29.4390703666       19.5897559138        3.4533463766
  H        30.2901289282       15.9149147682        3.8264118533
  H        31.3440137806       15.6971438195       12.5358078515
  H        28.4859126111       17.9508552567       14.6312592085
  H        29.6281138759       15.5109379766       14.4042894909
  H        32.1627739873       16.0674214079        2.1718916173
  H        28.4833368713       17.1603381731        3.5373998068
  H        32.4764083163       18.4940442258       15.9480518787
  H        18.8540653409        0.8692805828       12.3352445877
  H        40.5278562221       35.2290805717        3.9519806809
  H        42.3245650237       34.4194228592        3.5903332373
  H        22.0877364247        0.6919126282       12.3516331446
  H        11.5971836524       18.7126108273       12.3822246689
  H        52.2651143908       18.4310309167        3.6776688692
  H        49.2551012919       16.4770670337        3.5846673420
  H        10.1502577593       15.7981874149       12.2927241906
  H        50.8501366779       17.6924783356        3.9542609800
  H        10.0461078709       17.3945648094       12.0519729185
  H        20.2154437843        0.0023413339       12.0418877386
  H        39.1837190191       36.1245379576        3.6863834970
 Ni        30.8609186490       17.8199836505        2.6645950036
 Ni        31.1993507386       16.4465210115        0.0003473372
 Ni        30.1409121444       18.7674604802        0.0881279193
 Ni        30.1773331419       17.5211161606       13.0799313829
  O        10.6499573041       14.3651443982        5.4858476332
  O        12.6131767222       14.6575521569        6.5839277377
  O        49.1477551744       16.8459504958        7.9898245642
  O        50.3501017198       20.9359770554        5.6481516639
  O        48.3484570906       20.5932690512        6.6660029185
  O        11.0515992382       17.0538730439        6.5007283309
  O        50.3210261772       20.8816496106       10.4068172057
  O        48.3467388297       20.5867146100        9.3271237998
  O        49.5435232324       18.2484051938       10.0682758294
  O        12.3589790371       18.6245708704        7.9997262578
  O        48.6932069364       14.1486026827        6.7512921317
  O         8.2098254338       14.2104719199        9.3225953552
  O        10.7352980261       14.5067847922       10.6643422901
  O        12.5717922685       14.5828477606        9.3285084402
  O        22.8451388959        2.0436876957        5.4870307473
  O        21.6068599147        3.5932980792        6.5884255068
  O        42.0582735133       34.1375396177        7.9789364537
  O        37.9816527687       33.1387315615        5.5727139671
  O        39.2176305815       31.5759773598        6.6662931373
  O        20.3086153151        1.0400120559        6.5022275962
  O        38.0245707275       33.1855674972       10.4152459745
  O        39.2191807776       31.5837318478        9.3263915686
  O        40.6523078840       33.7694033635       10.0601494603
  O        18.2557375338        1.3762774777        7.9968114245
  O        44.6222209937       35.1005544122        6.7587640527
  O        24.2054201182        0.0000011126        9.3207709588
  O        22.7533132643        2.0576927013       10.5838583199
  O        21.6252148830        3.5968085204        9.3439309682
  O        27.5041833953       18.7497508012        5.4887654498
  O        26.7635080956       16.9379688922        6.6513182248
  O        30.6664249386       19.4095193354        7.9949526703
  O        33.5771716834       16.2773835329        5.6553295549
  O        34.2780986124       18.1599587075        6.7302855255
  O        29.5743937945       17.0677430004        6.5698572057
  O        33.5521519126       16.3391860317       10.4091951861
  O        34.2984328729       18.2383917145        9.4012967793
  O        31.6533539406       18.3182762677       10.0753308793
  O        30.3185243850       15.1545406648        8.0638549157
  O        28.5577267209       21.0339125243        6.8276166746
  O        28.5128105605       20.9591488538        9.3984146030
  O        27.4593379561       18.6808371484       10.6549156223
  O        26.6946197423       16.9294835041        9.4107909858
  O        13.1490400017       18.6929157484       10.5875221215
  O        13.9196392658       16.9162706248        9.4052325818
  O        50.5959172572       19.3501612368        8.0206005781
  O        47.6822621799       16.3272432729       10.4173813264
  O        46.9504398151       18.1757032087        9.3253184023
  O        11.0696621314       17.0155488905        9.4896402564
  O        47.6759035245       16.3358158397        5.6528382848
  O        46.9260146395       18.2357307591        6.6637015083
  O        49.5685458873       18.3177036296        5.9823464663
  O        10.3185807179       15.1002386976        7.9971125915
  O        52.6707566652       21.0278876106        9.2418347367
  O        12.1467952115       20.8911923045        6.6732375983
  O        13.1080452254       18.6137059788        5.3256489292
  O        13.9574142246       16.9871398475        6.6652837850
  O        30.0053272039       14.4390354372       10.6644138475
  O        28.0802411122       14.6569524227        9.4845551644
  O        32.0800436960       16.8668648928        8.0129416905
  O        30.9659494094       20.9528973445       10.4004861487
  O        32.9474475099       20.5980114951        9.3315991673
  O        29.5602691782       17.0766707250        9.5653203084
  O        30.9209244122       20.8832674216        5.6542559246
  O        32.9440355448       20.5847023600        6.6606793213
  O        31.6834770153       18.2511954111        5.9231193021
  O        28.2905451919       18.6774355451        8.0580728161
  O        32.4925505048       14.2128835534        9.3206513128
  O        32.3994200345       14.2171076694        6.8174515132
  O        29.8824309816       14.5095400021        5.4154312038
  O        28.0433337931       14.5881504787        6.7459370815
  O        17.8892805729        1.9666914009       10.6627754981
  O        18.9563558606        3.5271821212        9.4079202736
  O        39.1686529951       34.1388552440        7.9972251116
  O        43.2802217607       33.0589872948       10.3316973595
  O        42.0345237172       31.5064726417        9.2416117955
  O        20.3178703252        1.0370009967        9.4798477178
  O        43.2760782434       33.1826530609        5.5749025994
  O        42.0052564998       31.5841156770        6.5829547058
  O        40.5790041425       33.7750917827        5.9359275492
  O        22.3675327343        1.3849776784        7.9979314467
  O        36.6728208144       35.0997751967        9.2333367078
  O        16.4456129362        0.0644117971        6.6683436479
  O        17.9365202334        2.0434782191        5.3264207718
  O        18.9192623547        3.5931570564        6.6659653001
  O        29.8197468267       18.8285238588        3.9211451431
  O        29.8407705986       18.9684062102       11.9333583308
  O        31.1300785413       16.4046917871        3.9994206653
  O        31.2648792699       16.4916326898       11.9705132318
  O        32.0616248555       16.8511917094        1.5909557918
  O        28.3405010084       16.2649124512        3.1638463949
  O        30.4265977911       16.0574305724       14.3183384622
  O        31.7655070271       18.2334802211       15.3295617300
  O        29.2327981326       18.5387084684       14.4056578169
  O        39.4567391299       35.2438688966        4.0019389190
  O        19.1418971612        0.0048132400       11.9904593042
  O        41.9696299225       35.1728642150        4.0872181106
  O        21.6912572008       -0.0694454871       11.8959088440
  O        51.3651999310       18.6143087141        4.0054609256
  O        10.7512518261       18.7471187690       11.9049199554
  O        50.0796203699       16.4128228821        4.0917984395
  O         9.5244545310       16.4830949570       11.9911897335
 Zr         9.2968400820       16.0527360015        6.1824258870
 Zr        49.8362432081       16.0068206071        9.7465579633
 Zr        22.0734459375        0.0305332309        6.1888335525
 Zr        42.4610374558       35.1538595742        9.8009836601
 Zr        29.6216317457       19.0677974956        6.2359692194
 Zr        29.5815116809       19.1876571342        9.8053331950
 Zr        11.0380109714       19.0518964570        9.8277633365
 Zr        11.0437879426       19.1547594025        6.2511829801
 Zr        31.3421009042       16.1039009808        9.8200307109
 Zr        31.3867750804       16.0142100836        6.2230194119
 Zr        18.6014766227       -0.0009654607        9.7633611260
 Zr        18.5067583367       -0.0071070260        6.2139391270
 Zr        12.3022166928       16.3235360257        7.9903128483
 Zr        48.6159838600       18.8329138726        8.0104103298
 Zr        20.3162047295        2.4744746229        7.9905135759
 Zr        40.6437223811       32.6874268722        7.9781515878
 Zr        28.3356221265       16.3387313431        8.0794443688
 Zr        32.6375435698       18.8397239546        8.0262301405
  H        28.5940055357       16.3673459233        2.2292634156
  H        30.7239688902       19.0389452413        1.5662886595
  H        30.8239682454       15.1305095314        0.4949853912
