     573
 i =        9, E =     -4762.7591810553
  C        11.8583861616       14.0534758240        5.7415000143
  C        12.4562684762       12.8906666588        5.0233010068
  C        11.7046600250       12.1715580921        4.0817190852
  C        12.2810057806       11.1094019320        3.3892705926
  C        13.6215852524       10.7397045837        3.6171256218
  C        14.3547749327       11.4432278491        4.5906021427
  C        13.7818623107       12.5083459661        5.2818891058
  C        14.2610343333        9.6490980838        2.8436026054
  C        14.2562282160        9.6568881463        1.4219323190
  C        13.7429642411       10.7589736982        0.6680134878
  C        49.1264712257       21.2330726104        5.8797931915
  C        48.5501527117       22.4012107535        5.1526950910
  C        49.3001848699       23.0685325219        4.1716797116
  C        48.7333092503       24.1077078046        3.4384886221
  C        47.4027536039       24.5092799675        3.6670622389
  C        46.6716744898       23.8603377860        4.6804309467
  C        47.2342082625       22.8155854168        5.4099420914
  C        46.7723843946       25.5869462139        2.8698823771
  C        46.7611681515       25.5573233427        1.4481451258
  C        47.2611137463       24.4421938662        0.7046864848
  C        14.8607299679        8.5708745781        0.7086630058
  C        14.8919344397        8.5971927998        3.5202285405
  C        49.1129658641       21.2035295562       10.1452670409
  C        48.5279110763       22.3649610482       10.8725464759
  C        49.2670523640       23.0254146726       11.8657115538
  C        48.6906648522       24.0599127739       12.5972165915
  C        47.3603561548       24.4568312097       12.3587058720
  C        46.6397640225       23.8116381125       11.3355133420
  C        47.2133637334       22.7758453990       10.6036289757
  C        46.7218429077       25.5317646870       13.1496975467
  C        46.7334470419       25.5280440606       14.5714004369
  C        47.2485947335       24.4287911660       15.3279183365
  C        40.6357390178       17.1536491975       15.3237199606
  C        40.6557469020       17.1847290762       12.5156959875
  C        11.8826608743       14.0865926056       10.2856576017
  C        12.4724551623       12.9110408977       10.9899406606
  C        11.7148529528       12.1774204005       11.9156482259
  C        12.2814131681       11.0948989207       12.5839495949
  C        13.6204419208       10.7216402308       12.3525412920
  C        14.3584002511       11.4370786578       11.3916315773
  C        13.7928993681       12.5183451415       10.7191258487
  C        14.2539102747        9.6247634369       13.1228764291
  C        14.2525304248        9.6446123866       14.5446893341
  C        13.7425626753       10.7535179396       15.2917675205
  C        22.5103655506        3.2440957949        5.7521830328
  C        23.2217232580        4.3505822950        5.0514639255
  C        24.2149449248        4.0727491724        4.1008405094
  C        24.8375057249        5.1141580980        3.4176127804
  C        24.4832910478        6.4553493283        3.6649666226
  C        23.5181477775        6.7240558514        4.6525266557
  C        22.8904895557        5.6848841121        5.3342349254
  C        25.0859930149        7.5634675631        2.8896901245
  C        25.0560556995        7.5582172455        1.4683054212
  C        24.3521308851        6.5605892058        0.7216493502
  C        38.3038400638       31.9290938443        5.8482836369
  C        37.5781904818       30.8386552514        5.1368535905
  C        36.6195968184       31.1406681180        4.1576731725
  C        36.0061347593       30.1188438007        3.4383774274
  C        36.3377524694       28.7710422668        3.6777911469
  C        37.2659017377       28.4757744163        4.6937970004
  C        37.8835468829       29.4965888988        5.4112312748
  C        35.7388214526       27.6771628814        2.8813420045
  C        35.7717888165       27.6889153216        1.4601805769
  C        36.4781938207       28.6911630849        0.7225629621
  C        25.6798766255        8.6281054660        0.7491403432
  C        25.6849412774        8.6368237263        3.5612640845
  C        38.3290931185       31.9619470400       10.1559037450
  C        37.6096317381       30.8873838660       10.8968803730
  C        36.6815922517       31.1935615100       11.9037871497
  C        36.0753289843       30.1724813507       12.6328091414
  C        36.3832468921       28.8211380670       12.3779803749
  C        37.2872355701       28.5251802926       11.3395257607
  C        37.8963244575       29.5424525331       10.6121180823
  C        35.7800722245       27.7196807203       13.1622583245
  C        35.7938474893       27.7111228953       14.5841111650
  C        36.4889427985       28.7024126594       15.3458294097
  C        46.1355874303       26.6207958289       15.2815134725
  C        46.0879597448       26.5801620040       12.4736701631
  C        22.4600320918        3.2559264142       10.2578313566
  C        23.1523095131        4.3664442632       10.9797667383
  C        24.1528109062        4.0835595105       11.9231091220
  C        24.7778080794        5.1161305125       12.6182217550
  C        24.4233472271        6.4614421790       12.3926608377
  C        23.4458854191        6.7370584184       11.4177399610
  C        22.8160343760        5.7050154861       10.7229441769
  C        25.0513706586        7.5614190445       13.1666942309
  C        25.0385077027        7.5566357378       14.5893445531
  C        24.3415419138        6.5613622659       15.3448244146
  C        26.6241697421       17.8626222646        5.7762762737
  C        25.3150660748       17.9102852178        5.0537336712
  C        25.0509139257       18.9162954388        4.1102090924
  C        23.8378431027       18.9379325104        3.4240766130
  C        22.8518371509       17.9585082791        3.6620187584
  C        23.1117152647       16.9757492943        4.6362241811
  C        24.3267190379       16.9480836614        5.3197466703
  C        21.5778199979       17.9481688321        2.8980960789
  C        21.5776734072       17.9335588967        1.4753396404
  C        22.7836398082       17.8179606105        0.7143450290
  C        34.4417213098       17.1939972125        5.9226385584
  C        35.7368535526       17.1419498467        5.1842527228
  C        35.9366254721       16.1855292515        4.1758511399
  C        37.1140584209       16.1774006619        3.4330516735
  C        38.1278217075       17.1228511989        3.6837429583
  C        37.9313639926       18.0616528969        4.7144117530
  C        36.7501124102       18.0744551667        5.4518658107
  C        39.3807498931       17.1365443944        2.8965910333
  C        39.3765885065       17.1634703407        1.4754959189
  C        38.1713115556       17.2953353450        0.7168430126
  C        20.3311015620       17.9493667188        0.7665050148
  C        20.3530146372       17.9453351356        3.5805753096
  C        34.4765212152       17.2532167545       10.1786757262
  C        35.7759332917       17.1780540754       10.9090376244
  C        35.9883593533       16.2020501263       11.8939402077
  C        37.1755752943       16.1898695396       12.6206753449
  C        38.1765466906       17.1511946958       12.3830196708
  C        37.9714830849       18.0984432257       11.3627378476
  C        36.7824960350       18.1182767635       10.6384793524
  C        39.4234597720       17.1756585867       13.1779703904
  C        39.3998814735       17.1839068566       14.5989858198
  C        38.1819167535       17.3036146821       15.3400868161
  C        35.1649952268       26.6309380002       15.2880689315
  C        35.1889108083       26.6484699558       12.4808021541
  C        26.5727265258       17.8263809637       10.3218917833
  C        25.2583218262       17.8763781108       11.0307354248
  C        24.9940781911       18.8901433671       11.9642946164
  C        23.7758546578       18.9195130215       12.6378844850
  C        22.7939808149       17.9369073563       12.4011186996
  C        23.0521419612       16.9499049393       11.4329202597
  C        24.2713241759       16.9170833851       10.7584346089
  C        21.5299137507       17.9209898211       13.1742010504
  C        21.5525333433       17.9174217941       14.5959768032
  C        22.7717651140       17.8097112788       15.3378858848
  C        14.0464491931       17.8294587200       10.2888677832
  C        15.3511118672       17.8885324103       11.0136944020
  C        15.6065532813       18.8937278881       11.9594956800
  C        16.8154125714       18.9169403382       12.6524323016
  C        17.8035935636       17.9384541271       12.4218132264
  C        17.5523572220       16.9574790148       11.4438333876
  C        16.3431092090       16.9295405645       10.7520233656
  C        19.0728379494       17.9249438972       13.1907052703
  C        19.0710559111       17.9253851072       14.6131966826
  C        17.8643747706       17.8250574437       15.3747743425
  C        46.8068373102       17.2207152837       10.1598644132
  C        45.5195110652       17.1657635184       10.9088476184
  C        45.3130899594       16.1939143054       11.8998950054
  C        44.1334052095       16.1848070474       12.6391129833
  C        43.1316295900       17.1475801523       12.4080971504
  C        43.3357875174       18.0994279868       11.3911401956
  C        44.5159433236       18.1125574843       10.6530739421
  C        41.8789309792       17.1661630417       13.1956891213
  C        41.8835153709       17.1655281712       14.6172195124
  C        43.0917995488       17.2566250924       15.3773988116
  C        20.3179404411       17.9406611000       15.3212727475
  C        20.2972067811       17.9053456801       12.5086594128
  C        46.7859490422       17.2302525352        5.8911698662
  C        45.4820355391       17.1242313495        5.1787792282
  C        45.2649272547       16.1310650366        4.2119660041
  C        44.0768484909       16.1076555144        3.4861582377
  C        43.0776916525       17.0740745718        3.7113600297
  C        43.2843549524       18.0355682458        4.7178846555
  C        44.4737809508       18.0658911262        5.4382140347
  C        41.8335359195       17.1042023734        2.9128779150
  C        41.8600515399       17.1312304673        1.4924753781
  C        43.0806189678       17.2381244009        0.7539573575
  C        46.1534690659       26.6373050107        0.7262748981
  C        46.1625781905       26.6561105972        3.5360339908
  C        14.0455448216       17.8322405988        5.7087512565
  C        15.3669039044       17.9082158351        5.0185403287
  C        15.6394529893       18.9252660261        4.0914674798
  C        16.8683850129       18.9645120811        3.4366054317
  C        17.8531528422       17.9865249575        3.6828128838
  C        17.5866308689       16.9979524683        4.6476537771
  C        16.3598655729       16.9580573295        5.3065299928
  C        19.1204765806       17.9646399772        2.9134643591
  C        19.0960833738       17.9446215985        1.4917431560
  C        17.8763992667       17.8337928448        0.7509999436
  C        28.8110277838       14.1008743905       10.3908292558
  C        28.2008524606       12.9256867932       11.0813059574
  C        28.9183961869       12.1859949129       12.0329554314
  C        28.3152259888       11.1113759502       12.6825930231
  C        26.9806353142       10.7519233468       12.4059631887
  C        26.2860983810       11.4700398484       11.4162743511
  C        26.8864018472       12.5451616549       10.7658925607
  C        26.3054236082        9.6742110601       13.1653230271
  C        26.2868151380        9.7013054422       14.5864581108
  C        26.7899628362       10.8141082973       15.3327982856
  C        32.1837567952       21.2469089433       10.1333888771
  C        32.7821878587       22.4013585823       10.8668574110
  C        32.0357252040       23.0800476334       11.8424653027
  C        32.6102787310       24.1174885557       12.5705057347
  C        33.9453535623       24.5014447571       12.3403997544
  C        34.6749051528       23.8450594584       11.3316162093
  C        34.1015992688       22.8014920751       10.6078456869
  C        34.5784888693       25.5752172918       13.1386272921
  C        34.5744989841       25.5469446192       14.5599873198
  C        34.0673447924       24.4308253451       15.2977889175
  C        25.6751079527        8.6239882512       15.3043888610
  C        25.6705353899        8.6222201076       12.4916353720
  C        32.1072249261       21.2238616552        5.8742490505
  C        32.6969523406       22.3829491859        5.1420273432
  C        31.9658161177       23.0465321508        4.1436223820
  C        32.5490137119       24.0736462785        3.4044374644
  C        33.8804527816       24.4662664272        3.6453644612
  C        34.6002473305       23.8098456513        4.6621156770
  C        34.0187255464       22.7806936993        5.3979492369
  C        34.5258392054       25.5433301403        2.8597728595
  C        34.5457068599       25.5291605408        1.4387003952
  C        34.0519762742       24.4257666828        0.6743629612
  C        40.6235848200       17.1399086172        0.7677807699
  C        40.6029012712       17.1255941735        3.5774344988
  C        28.7404119949       14.0696839211        5.8087880688
  C        28.1295502534       12.9196652507        5.0779665721
  C        28.8646646420       12.2154948192        4.1119497420
  C        28.2778571592       11.1636392608        3.4126306245
  C        26.9418392438       10.7879304619        3.6579445994
  C        26.2235676348       11.4791950754        4.6516168206
  C        26.8078438248       12.5327256188        5.3519885592
  C        26.2970954536        9.6996585673        2.8845660351
  C        26.2853656183        9.7141367259        1.4628294677
  C        26.7880330885       10.8209066022        0.7089146161
  C        18.1351250324        3.1806204457       10.3175026338
  C        17.4062624408        4.2783836046       11.0158948578
  C        16.3904335696        4.0000486981       11.9432770702
  C        15.7426819028        5.0401308805       12.6065911239
  C        16.0948708475        6.3838373734       12.3671381976
  C        17.0844788333        6.6531994307       11.4035592066
  C        17.7336248949        5.6158293624       10.7385674459
  C        15.4704043434        7.4914790177       13.1301833515
  C        15.4856771115        7.4907186871       14.5518980682
  C        16.1872140099        6.4970307235       15.3050085165
  C        42.9454676432       31.8591348217       10.0728131549
  C        43.6465580660       30.7719505903       10.8167687639
  C        44.5918602960       31.0933999333       11.8030233647
  C        45.1974944637       30.0878338947       12.5507243682
  C        44.8713121786       28.7347040679       12.3359011100
  C        43.9457691307       28.4203853759       11.3224288313
  C        43.3370965601       29.4254409904       10.5741658054
  C        45.4886839435       27.6552005538       13.1389815696
  C        45.4930060918       27.6810490000       14.5606742833
  C        44.8057740284       28.6889948402       15.3073043733
  C        14.8567986329        8.5632680007       15.2642474248
  C        14.8752908109        8.5633336914       12.4515699235
  C        42.9459685428       31.9611441466        5.8090203074
  C        43.6920633337       30.8855196628        5.0957191982
  C        44.6563725282       31.1916549098        4.1231983088
  C        45.2776814708       30.1720257956        3.4053385006
  C        44.9544062807       28.8216038976        3.6430948956
  C        44.0213187544       28.5239494337        4.6542739831
  C        43.3932210006       29.5405991985        5.3667391056
  C        45.5634381255       27.7241497119        2.8579346956
  C        45.5333344593       27.7173363902        1.4366287879
  C        44.8270114433       28.7075962875        0.6836993210
  C        35.1526275258       26.6202855986        0.7327500442
  C        35.1347001535       26.6021717626        3.5429462744
  C        18.1483320690        3.2464940073        5.7063661432
  C        17.4301594181        4.3438376566        4.9972947806
  C        16.4148913143        4.0526426368        4.0737907932
  C        15.7665117005        5.0832968117        3.3984968302
  C        16.1212220214        6.4285529630        3.6210893786
  C        17.1128700231        6.7118268655        4.5781195821
  C        17.7605621720        5.6828951465        5.2578875647
  C        15.4905929005        7.5241790137        2.8486472389
  C        15.4966876985        7.5075961136        1.4275136700
  C        16.1934585260        6.5058970913        0.6808193558
  H        10.6725139102       12.4656411605        3.9047953653
  H        11.6946173069       10.5507975139        2.6629057265
  H        15.3919026884       11.1687666689        4.7720654033
  H        14.3513483102       13.0714852219        6.0173802081
  H        13.3760209979       11.6311069358        1.2013570471
  H        50.3229108954       22.7485985703        3.9868384517
  H        49.3196185361       24.6230150801        2.6808043043
  H        45.6422364304       24.1611727555        4.8638701590
  H        46.6632151872       22.2902120246        6.1719458967
  H        47.6295094676       23.5757251757        1.2463425915
  H        14.8722951054        8.5882949299        4.6085414819
  H        50.2871932412       22.7027514851       12.0604767211
  H        49.2691281189       24.5756282854       13.3604922655
  H        45.6104350534       24.1090049137       11.1462281255
  H        46.6525872311       22.2536515463        9.8320672923
  H        47.6074972470       23.5517296254       14.7969872918
  H        40.6634600443       17.1501920383       11.4279484944
  H        48.6870757050       14.0949399368        7.7998808558
  H        10.6812936563       12.4662545072       12.0928364534
  H        11.6896612108       10.5244418004       13.2966470122
  H        15.3940387743       11.1595970121       11.2061899128
  H        14.3653484271       13.0878723623        9.9907918734
  H        13.3756308495       11.6221072738       14.7531495655
  H        47.9299292816       14.2178131692        9.7110417440
  H        47.7799299212       14.3731402866        6.4951651737
  H        49.0841755192       18.5528783119       10.8678042447
  H        10.4161032797       14.1343823367        7.9986630550
  H        24.4760557665        3.0346335427        3.9077200640
  H        25.6080493843        4.8986521892        2.6805536257
  H        23.2376562387        7.7566122180        4.8499646216
  H        22.1231157370        5.8834564645        6.0784195094
  H        23.7896993838        5.8045439981        1.2616924362
  H        36.3799042926       32.1832131400        3.9621742624
  H        35.2628355771       30.3550717782        2.6801754313
  H        37.5294110575       27.4376123381        4.8849516868
  H        38.6268264131       29.2787202891        6.1744390062
  H        37.0433259634       29.4414451125        1.2680423591
  H        25.7215733962        8.6176187087        4.6489927519
  H        36.4572066844       32.2370731971       12.1131707716
  H        35.3506452313       30.4141791371       13.4071213257
  H        37.5364886966       27.4858974174       11.1360381952
  H        38.6181109331       29.3201941721        9.8299036478
  H        37.0622411510       29.4605858271       14.8197757417
  H        46.1095630917       26.5875467207       11.3856454915
  H        44.6680636549       35.1163729255        7.8138698309
  H        24.4310004647        3.0459600151       12.0934136875
  H        25.5569707758        4.8896749047       13.3429779945
  H        23.1608501883        7.7710418025       11.2341258107
  H        22.0455621438        5.9156751186        9.9848675888
  H        23.7707078251        5.8060195240       14.8125816421
  H        44.9543716692       34.3904893540        9.6956252543
  H        44.9021379264       34.2067378100        6.4905590253
  H        40.6659434907       33.2089233734       10.8533922942
  H        23.1496475478        1.9574968175        8.0051437486
  H        25.8063268613       19.6785758457        3.9321548385
  H        23.6389035267       19.7242406029        2.6989887846
  H        22.3620465690       16.2109223747        4.8290478952
  H        24.5382331740       16.1759093748        6.0560767224
  H        23.7250456409       17.7026496097        1.2435538076
  H        35.1507113473       15.4581677430        3.9845350752
  H        37.2694713736       15.4268840238        2.6606987580
  H        38.7068780488       18.7990384467        4.9119207731
  H        36.5809437250       18.8132534059        6.2317255015
  H        37.2321891257       17.4204097653        1.2482525806
  H        20.3591605338       17.9806107572        4.6686540075
  H        35.2070161771       15.4708854077       12.0868281310
  H        37.3414547472       15.4336799977       13.3846055463
  H        38.7370521283       18.8480302443       11.1731574317
  H        36.6019854786       18.8676833236        9.8716790054
  H        37.2504809584       17.4327993558       14.7965280740
  H        35.1573438820       26.6758044757       11.3932119882
  H        28.4986948533       21.0819694080        7.8829444285
  H        25.7543442734       19.6466869543       12.1451764024
  H        23.5687205546       19.7082850239       13.3579310269
  H        22.3034710895       16.1838186553       11.2425764912
  H        24.4881778288       16.1443894644       10.0248707957
  H        23.7037320389       17.6892291564       14.7936773748
  H        28.9951982574       21.7273399085        9.7455855245
  H        29.1999052007       21.7189378589        6.5709725193
  H        32.0916490078       18.5680476957       10.9297505910
  H        27.4048832034       19.0715992897        8.0791237669
  H        14.8469792185       19.6519262257       12.1363095453
  H        17.0095194880       19.7027886834       13.3793390275
  H        18.3049182624       16.1941604949       11.2566781477
  H        16.1383344762       16.1586205455       10.0129138087
  H        16.9220565341       17.7079060977       14.8474866100
  H        46.0938729146       15.4595579461       12.0836175583
  H        43.9722058086       15.4234591739       13.3991169849
  H        42.5698018057       18.8504252357       11.2093328453
  H        44.6915120996       18.8613644508        9.8843041583
  H        44.0339454632       17.3722214895       14.8490438131
  H        20.2902637910       17.9310704044       11.4203641855
  H        46.0428421292       15.3929206556        4.0306478525
  H        43.9102634542       15.3382536902        2.7354712838
  H        42.5168246658       18.7853245035        4.8979909528
  H        44.6565148489       18.8273713797        6.1923680765
  H        44.0147437809       17.3381130817        1.2990685631
  H        46.1995802396       26.6827877143        4.6234712422
  H        52.7411773285       21.0624935334        8.1947776418
  H        14.8783296568       19.6786879054        3.9009097346
  H        17.0788500178       19.7566145417        2.7212025148
  H        18.3379205408       16.2361753153        4.8457025798
  H        16.1396994827       16.1820099419        6.0356026534
  H        16.9431931495       17.7234806761        1.2950143765
  H        52.3223301918       21.6735711436        6.2941766313
  H        52.0132416617       21.7023334952        9.4956695923
  H        49.0673634619       18.6078319031        5.2039402517
  H        13.2470660180       19.0163357019        7.9773553543
  H        29.9465738273       12.4662605201       12.2505365912
  H        28.8715619425       10.5368959429       13.4201396259
  H        25.2551127755       11.2038058907       11.1925896691
  H        26.3475037384       13.1202870166       10.0172746596
  H        27.1534819473       11.6831887530       14.7928244168
  H        31.0099064369       22.7686219602       12.0246070169
  H        32.0290019338       24.6433677035       13.3248176276
  H        35.7086417820       24.1320541380       11.1503531083
  H        34.6665799566       22.2659864914        9.8483196936
  H        33.7120220247       23.5619535467       14.7517517563
  H        25.7044292749        8.6004227881       11.4037276259
  H        30.9371209560       22.7443179937        3.9593494168
  H        31.9733326014       24.5936918579        2.6415093175
  H        35.6324127653       24.0986433032        4.8511234094
  H        34.5781497261       22.2493437886        6.1644033610
  H        33.6861840973       23.5511396047        1.2051127768
  H        40.5950082216       17.0765280640        4.6645207901
  H        32.5162300329       14.1443379764        8.2566515774
  H        29.8972530616       12.5031904152        3.9280137027
  H        28.8561118325       10.6142810508        2.6728965475
  H        25.1903592404       11.1993750597        4.8472210057
  H        26.2497850940       13.0825454477        6.1064091582
  H        27.1487149678       11.6957443586        1.2421821187
  H        33.3012732937       14.1888935847        6.4426157214
  H        33.4076103694       14.4042815826        9.6047415578
  H        32.1624663620       18.5578070454        5.1930600644
  H        30.2268553987       14.1932142531        8.0873859210
  H        16.1181113937        2.9635782747       12.1294265315
  H        14.9530813719        4.8207947899       13.3221135252
  H        17.3671304760        7.6860893904       11.2107645147
  H        18.5158331827        5.8184719580       10.0108945179
  H        16.7539050009        5.7398136521       14.7714796722
  H        44.8279314282       32.1404778821       11.9775784667
  H        45.9371592344       30.3414733392       13.3069095942
  H        43.6833384923       27.3783201660       11.1518649286
  H        42.6006205082       29.1901546076        9.8093732946
  H        44.2304897563       29.4367935353       14.7689619230
  H        14.8515989015        8.5464955879       11.3633450627
  H        44.8994296325       32.2343486363        3.9311508914
  H        46.0242950048       30.4131748925        2.6517783078
  H        43.7648702759       27.4842132929        4.8464609229
  H        42.6469882775       29.3178617089        6.1254642166
  H        44.2687161492       29.4706721896        1.2182274045
  H        35.0888628866       26.6159931964        4.6300275059
  H        36.6052298277       35.1340824530        8.1808479227
  H        16.1434791241        3.0131377398        3.9042962179
  H        14.9740515274        4.8565799083        2.6885114195
  H        17.3965607274        7.7473016274        4.7547789380
  H        18.5436141461        5.8933608674        5.9824632963
  H        16.7648808814        5.7556718901        1.2192891257
  H        36.2778918931       34.4823999095        6.2729521691
  H        36.3805002427       34.2090433263        9.4997214297
  H        40.5809610840       33.2025465762        5.1529574742
  H        17.4709656103        1.9471677517        7.9741495629
  H        29.0808503826       19.4131366363       12.4707361675
  H        29.2921735635       19.3571951399        3.5308188692
  H        30.7994693422       15.4559208788        3.7631097102
  H        31.3532866551       15.7530741516       12.5419792054
  H        28.0040900095       18.1549666344       14.6149597061
  H        29.6624075014       15.3542679841       14.5707856728
  H        32.7260058925       16.5649996843        1.7497343971
  H        28.3206288721       17.2951647857        2.3743745677
  H        32.2793422198       18.7876511985       14.5695198376
  H        18.8543287996        0.8690205912       12.3350691385
  H        40.5279679881       35.2292650910        3.9519737938
  H        42.3249154955       34.4195355583        3.5896736442
  H        22.0877581779        0.6917242545       12.3507977050
  H        11.5967396653       18.7129312269       12.3821207703
  H        52.2646018090       18.4312304582        3.6773094195
  H        49.2550326579       16.4770746272        3.5842503211
  H        10.1503043068       15.7980133390       12.2927849863
  H        50.8497973786       17.6921365892        3.9541934425
  H        10.0464598702       17.3944484694       12.0520416024
  H        20.2152700631        0.0028757803       12.0420698051
  H        39.1839007736       36.1248686136        3.6869027463
 Ni        30.8734011395       17.6212609293        2.7531957462
 Ni        31.3046867085       16.5450741710       -0.2789487904
 Ni        29.9737710209       19.0875650139       -0.1905098419
 Ni        30.0905949821       17.5533131571       13.2297459188
  O        10.6496082791       14.3654724789        5.4860511905
  O        12.6130231441       14.6573590876        6.5836851410
  O        49.1476152601       16.8457191362        7.9895213662
  O        50.3498689207       20.9360527891        5.6476919176
  O        48.3484468750       20.5930139767        6.6662516085
  O        11.0513721163       17.0538118119        6.5011438799
  O        50.3206703173       20.8818218147       10.4072817208
  O        48.3467262188       20.5865400068        9.3269696856
  O        49.5432407446       18.2481935284       10.0684000354
  O        12.3586586456       18.6243723676        7.9994095242
  O        48.6931666990       14.1482838404        6.7511309912
  O         8.2095409943       14.2100704101        9.3226213014
  O        10.7349238496       14.5068924675       10.6641457637
  O        12.5712899051       14.5824491961        9.3283188434
  O        22.8434726111        2.0427132426        5.4878467171
  O        21.6048647083        3.5913767906        6.5898130548
  O        42.0580107694       34.1377477277        7.9792867476
  O        37.9803280484       33.1365718815        5.5715143987
  O        39.2179456404       31.5760363159        6.6674754561
  O        20.3079636230        1.0388984779        6.5024077879
  O        38.0244422148       33.1853163577       10.4153714298
  O        39.2185221334       31.5818481302        9.3259438587
  O        40.6530140254       33.7689015920       10.0602498862
  O        18.2549366035        1.3749932839        7.9968877693
  O        44.6225792014       35.1003704379        6.7587085423
  O        24.2056099583       -0.0005744120        9.3204893117
  O        22.7525734454        2.0577723561       10.5834106981
  O        21.6239191163        3.5947711247        9.3422715068
  O        27.5052373498       18.7525962651        5.4934304506
  O        26.7690073174       16.9392684451        6.6488938414
  O        30.6700720192       19.4134312967        8.0200301858
  O        33.5904584659       16.2760536429        5.6667555908
  O        34.2744009112       18.1731703549        6.7335612725
  O        29.5747069585       17.0576620334        6.5817128580
  O        33.6261929432       16.3268549689       10.4090437120
  O        34.2935603322       18.2513340925        9.4031952505
  O        31.6844385101       18.3233882702       10.0788288464
  O        30.3308124058       15.1590777484        8.0683724355
  O        28.5610796643       21.0292106535        6.8305694524
  O        28.5057745673       20.9620785693        9.3991234970
  O        27.4539197636       18.6804848009       10.6568222791
  O        26.6957842653       16.9270043074        9.4100653098
  O        13.1475271059       18.6927024813       10.5865502774
  O        13.9192441981       16.9167916719        9.4052388212
  O        50.5963351984       19.3505220473        8.0205279883
  O        47.6834646988       16.3273646778       10.4177245181
  O        46.9525842774       18.1760749658        9.3236904991
  O        11.0693398982       17.0154671473        9.4892947267
  O        47.6763446150       16.3353427461        5.6528286694
  O        46.9274016653       18.2359481297        6.6650262901
  O        49.5683654484       18.3176950040        5.9822242491
  O        10.3183315503       15.1001685920        7.9972520788
  O        52.6706084811       21.0280673152        9.2419151125
  O        12.1464462691       20.8915822482        6.6734219756
  O        13.1077537582       18.6137960870        5.3257646632
  O        13.9573097520       16.9872878078        6.6650611467
  O        29.9953032431       14.4453835220       10.7300764178
  O        28.0870938929       14.6575543134        9.4918257691
  O        32.1392178351       16.8520369795        8.0824195296
  O        30.9714490361       20.9614740811       10.4012737928
  O        32.9448626860       20.5935191193        9.3334734744
  O        29.5688528372       17.0799005894        9.5761745633
  O        30.8714519594       20.9540186149        5.6706688993
  O        32.8686078882       20.5801553494        6.6710367449
  O        31.7019579366       18.2516037985        5.9907768029
  O        28.2942171969       18.6816200315        8.0749622132
  O        32.4905518445       14.2203091138        9.3283106995
  O        32.4078384846       14.2213456690        6.8226586868
  O        29.9204431161       14.4440134306        5.4926841644
  O        28.0418394014       14.5846207871        6.7488125747
  O        17.8896420243        1.9659004667       10.6625413257
  O        18.9556616806        3.5264822260        9.4080916838
  O        39.1694215903       34.1390421793        7.9975559599
  O        43.2802344833       33.0582649895       10.3323601883
  O        42.0342366605       31.5065241140        9.2411175235
  O        20.3174677630        1.0359094104        9.4791807484
  O        43.2761238965       33.1818520820        5.5747110097
  O        42.0046999468       31.5838840494        6.5832454298
  O        40.5775373082       33.7737987441        5.9360981359
  O        22.3663772107        1.3844052734        7.9982039778
  O        36.6722675030       35.0996963430        9.2335644102
  O        16.4451482812        0.0638580309        6.6681615639
  O        17.9368871946        2.0425726841        5.3265629535
  O        18.9183985687        3.5929200167        6.6657718318
  O        29.9232078132       18.8174742347        4.0439631712
  O        29.8051939993       18.9898208653       11.9773245911
  O        31.3349001591       16.2034052932        4.0782954911
  O        31.2404947414       16.5542070697       11.9800422994
  O        32.1242270236       17.2184039416        1.3287842684
  O        29.0607904559       16.9890671728        1.8202312452
  O        30.3803990802       15.9201892648       14.2450939735
  O        31.4671175452       18.3251157847       14.8349848221
  O        28.8507155752       18.5716068657       14.3547113698
  O        39.4569440095       35.2441124002        4.0022527879
  O        19.1418511343        0.0044810897       11.9900785816
  O        41.9691519254       35.1721460077        4.0870918901
  O        21.6907123322       -0.0702263827       11.8962225494
  O        51.3646018921       18.6142019050        4.0052766521
  O        10.7505906469       18.7474277684       11.9050012920
  O        50.0788856884       16.4125473427        4.0923019105
  O         9.5247832604       16.4830713444       11.9909698130
 Zr         9.2981599813       16.0519945604        6.1829274026
 Zr        49.8373492465       16.0060693471        9.7459961833
 Zr        22.0746233571        0.0321444351        6.1896769293
 Zr        42.4623214419       35.1563477859        9.8009167834
 Zr        29.6117000328       19.0669136349        6.2703024416
 Zr        29.5872144056       19.1859542441        9.8500556893
 Zr        11.0398566477       19.0516319937        9.8276399427
 Zr        11.0455339945       19.1544114691        6.2512274808
 Zr        31.3487435013       16.1176503087        9.8819480956
 Zr        31.3981489000       16.0059817460        6.2873846375
 Zr        18.6013629705        0.0004613953        9.7637464487
 Zr        18.5065688403       -0.0057160743        6.2139174955
 Zr        12.3031798014       16.3239917876        7.9904010002
 Zr        48.6174896162       18.8331372900        8.0101538349
 Zr        20.3164218004        2.4743046452        7.9904128312
 Zr        40.6446576693       32.6875588637        7.9786938588
 Zr        28.3496985322       16.3408861551        8.0930121708
 Zr        32.6342689948       18.8338309486        8.0581189639
  H        29.1045132088       17.6504593828        1.0604201197
  H        28.8839818062       19.6134691569        0.6167724869
  H        31.2905935947       15.2247941192        0.3055866911
