     573
 i =      121, E =     -4762.7913049608
  C        11.8588465832       14.0535725281        5.7415079690
  C        12.4563686318       12.8905489748        5.0232978265
  C        11.7046175526       12.1714998219        4.0817869428
  C        12.2810055123       11.1093015924        3.3894304183
  C        13.6216521933       10.7396948603        3.6170171220
  C        14.3549256035       11.4434566556        4.5902577600
  C        13.7820175906       12.5084302621        5.2817672291
  C        14.2612161913        9.6490560541        2.8436035093
  C        14.2564425688        9.6569168169        1.4219013251
  C        13.7431436543       10.7589931494        0.6680168478
  C        49.1268108625       21.2332240079        5.8797291023
  C        48.5500086764       22.4012301799        5.1526264399
  C        49.3000487680       23.0685886018        4.1716871486
  C        48.7331064507       24.1077187057        3.4384674480
  C        47.4025599864       24.5092968251        3.6670782973
  C        46.6715681940       23.8603456636        4.6804966733
  C        47.2340362842       22.8154472508        5.4098560917
  C        46.7723081770       25.5870106649        2.8698240384
  C        46.7611771765       25.5573838582        1.4480625820
  C        47.2609698446       24.4422148998        0.7045895476
  C        14.8604306255        8.5706161149        0.7086209144
  C        14.8921242138        8.5971763927        3.5202321101
  C        49.1131153719       21.2033715407       10.1454479862
  C        48.5276678423       22.3647340414       10.8727109829
  C        49.2669396720       23.0255494721       11.8655030284
  C        48.6906135330       24.0601320520       12.5969484963
  C        47.3601542612       24.4567605619       12.3587948624
  C        46.6396350525       23.8116731856       11.3354756556
  C        47.2131973666       22.7757294484       10.6037360883
  C        46.7217513087       25.5318215837       13.1497571817
  C        46.7333577173       25.5281781217       14.5714611532
  C        47.2486772121       24.4289021671       15.3278294478
  C        40.6337258101       17.1036343206       15.3226394391
  C        40.6526354279       17.1505021458       12.5139045188
  C        11.8829665090       14.0865765993       10.2854644436
  C        12.4723736497       12.9108134356       10.9898009815
  C        11.7147451699       12.1774485975       11.9156769321
  C        12.2813552221       11.0949967742       12.5840959129
  C        13.6202575628       10.7214773999       12.3524613008
  C        14.3583465433       11.4372241471       11.3918930206
  C        13.7929011401       12.5183802455       10.7191844124
  C        14.2538425470        9.6246821686       13.1228394952
  C        14.2525603934        9.6445865522       14.5446799955
  C        13.7425792369       10.7534773546       15.2917629813
  C        22.5108912949        3.2459611931        5.7518580016
  C        23.2204150058        4.3540784147        5.0506420920
  C        24.2182218021        4.0799157166        4.1035211575
  C        24.8400054533        5.1231559089        3.4219033245
  C        24.4797305328        6.4636654540        3.6659198227
  C        23.5097490981        6.7292830450        4.6498130801
  C        22.8838332871        5.6879803103        5.3302830523
  C        25.0824742939        7.5731878565        2.8913583647
  C        25.0667007932        7.5619681187        1.4693451032
  C        24.3706346228        6.5600128754        0.7210203512
  C        38.2994936325       31.9303162463        5.8525930191
  C        37.5595208187       30.8427377070        5.1500609138
  C        36.5918010191       31.1518662798        4.1820519870
  C        35.9622148768       30.1352029522        3.4698848564
  C        36.2862622960       28.7844399235        3.7030848264
  C        37.2242553671       28.4824361675        4.7080772363
  C        37.8573990635       29.4982353202        5.4200284184
  C        35.6728376313       27.6993231016        2.9048905170
  C        35.6999333679       27.7209154383        1.4833030208
  C        36.4140142028       28.7202179423        0.7494892925
  C        25.6949040756        8.6298774501        0.7504227660
  C        25.6680174798        8.6542380776        3.5632675107
  C        38.3294194910       31.9629532989       10.1590658033
  C        37.6055885196       30.8950837935       10.9083873703
  C        36.6751913572       31.2155923505       11.9091345689
  C        36.0554582651       30.2062373649       12.6434158422
  C        36.3508015915       28.8499975984       12.4004130773
  C        37.2623276558       28.5391678752       11.3725624402
  C        37.8845192196       29.5454299210       10.6396544384
  C        35.7245623056       27.7591841324       13.1833233334
  C        35.7261979526       27.7518131929       14.6056882918
  C        36.4261950453       28.7351350965       15.3728763103
  C        46.1354586323       26.6208930169       15.2815712318
  C        46.0879058840       26.5802215576       12.4736816779
  C        22.4634495099        3.2574340256       10.2586275117
  C        23.1617601210        4.3660076430       10.9798063587
  C        24.1652659329        4.0794712703       11.9193633574
  C        24.7972784610        5.1089606581       12.6134396379
  C        24.4470037310        6.4561139044       12.3915418986
  C        23.4666908799        6.7357779099       11.4203283540
  C        22.8299916426        5.7065915818       10.7267279538
  C        25.0797696985        7.5543199639       13.1662783597
  C        25.0663453001        7.5512519333       14.5893229812
  C        24.3679090230        6.5565410961       15.3441170049
  C        26.6296760233       17.8641180241        5.7523657299
  C        25.3236658218       17.9238229739        5.0293246319
  C        25.0776493684       18.9071618673        4.0585733336
  C        23.8589317968       18.9377359698        3.3825159173
  C        22.8533602448       17.9865504338        3.6524728212
  C        23.0977120855       17.0270202260        4.6530229275
  C        24.3154816778       16.9932428616        5.3293637293
  C        21.5780896481       17.9719787350        2.8927083457
  C        21.5767820073       17.9346088365        1.4706317243
  C        22.7809025903       17.7935131223        0.7108950387
  C        34.4742383402       17.2491639346        5.9597647537
  C        35.7616354663       17.1767874856        5.2134879137
  C        35.9435119355       16.2019352912        4.2201314366
  C        37.1149882596       16.1738986091        3.4693173116
  C        38.1351121170       17.1185072727        3.6932346539
  C        37.9564379113       18.0721198424        4.7139349183
  C        36.7821544301       18.1068682395        5.4612535909
  C        39.3831726402       17.1136590816        2.8980411374
  C        39.3760797664       17.1200896961        1.4761138417
  C        38.1681870227       17.2363292910        0.7184767992
  C        20.3297059961       17.9508872737        0.7634079074
  C        20.3537466914       17.9795420434        3.5764631642
  C        34.4970366618       17.2194982184       10.1506868703
  C        35.7911424013       17.1540585813       10.8853271599
  C        36.0028856236       16.1633435044       11.8558222039
  C        37.1819229278       16.1472105560       12.5948377247
  C        38.1778012437       17.1188886664       12.3796036811
  C        37.9721163180       18.0864740452       11.3786026194
  C        36.7895383084       18.1098633101       10.6448010879
  C        39.4220163363       17.1325005725       13.1785791745
  C        39.3966526096       17.1306529209       14.5995560697
  C        38.1779896766       17.2391725552       15.3412850046
  C        35.0814455221       26.6783670733       15.3062414242
  C        35.1251128122       26.6958376525       12.4970644973
  C        26.5716102029       17.8293805494       10.3270895335
  C        25.2573520296       17.8734744953       11.0322037264
  C        24.9923549065       18.8771215293       11.9761681949
  C        23.7737700091       18.9014342698       12.6483975839
  C        22.7908114680       17.9225073945       12.4000518444
  C        23.0504140920       16.9436707646       11.4237581665
  C        24.2699163021       16.9167707303       10.7500095767
  C        21.5265851380       17.9047211185       13.1719226482
  C        21.5503254743       17.8988887594       14.5933195490
  C        22.7681840282       17.7769272886       15.3347684045
  C        14.0462159516       17.8291056551       10.2881594027
  C        15.3504180814       17.8869729797       11.0127457830
  C        15.6072560341       18.8921555628       11.9581087184
  C        16.8162599551       18.9139624108       12.6505878939
  C        17.8020759303       17.9333321792       12.4196572181
  C        17.5499988372       16.9523530280       11.4420444294
  C        16.3405233749       16.9260704568       10.7510034738
  C        19.0708127628       17.9171286461       13.1882907513
  C        19.0693082255       17.9201729793       14.6107727720
  C        17.8625442651       17.8267724727       15.3732266225
  C        46.8055856236       17.2187439856       10.1588366683
  C        45.5171307493       17.1566122408       10.9056084946
  C        45.3123975109       16.1759232687       11.8884097946
  C        44.1322497221       16.1568477972       12.6264811135
  C        43.1279710848       17.1189405389       12.4037961354
  C        43.3300986808       18.0795091470       11.3944267656
  C        44.5107149912       18.1021710928       10.6568515961
  C        41.8759452954       17.1280511921       13.1929289196
  C        41.8809080747       17.1186712743       14.6145045499
  C        43.0901128214       17.2085491694       15.3730098516
  C        20.3160610157       17.9322094610       15.3185888200
  C        20.2946169280       17.8936756107       12.5055125090
  C        46.7865803770       17.2299091835        5.8906758901
  C        45.4838570780       17.1207462883        5.1770767508
  C        45.2670878304       16.1183029642        4.2196686388
  C        44.0798675661       16.0883187486        3.4928689440
  C        43.0813286366       17.0577986263        3.7073762622
  C        43.2880719034       18.0295318899        4.7040801175
  C        44.4763528467       18.0658672800        5.4260216999
  C        41.8364498015       17.0784507832        2.9100781831
  C        41.8607366809       17.0917793722        1.4896115829
  C        43.0805546799       17.1932558443        0.7494959732
  C        46.1532458478       26.6373247578        0.7263314636
  C        46.1625191091       26.6561932892        3.5359747003
  C        14.0462635850       17.8341416122        5.7091496507
  C        15.3678580911       17.9157808360        5.0194960474
  C        15.6350967789       18.9336440232        4.0914792654
  C        16.8633711119       18.9792806468        3.4355220887
  C        17.8531905146       18.0065247539        3.6817092459
  C        17.5928045127       17.0177969181        4.6482495820
  C        16.3663234424       16.9714640737        5.3075928756
  C        19.1202564142       17.9878484146        2.9110429745
  C        19.0950495962       17.9558890719        1.4894282968
  C        17.8750968274       17.8426266552        0.7495340802
  C        28.8132620375       14.0896318893       10.3588536468
  C        28.2054124813       12.9193641828       11.0575938784
  C        28.9321726967       12.1867565011       12.0079555508
  C        28.3369388823       11.1142635969       12.6687868361
  C        27.0015353901       10.7486648806       12.4024346329
  C        26.2964600987       11.4632707063       11.4170796197
  C        26.8883894717       12.5367856589       10.7562838187
  C        26.3346861777        9.6674051306       13.1658050326
  C        26.3169409266        9.6953488654       14.5871896694
  C        26.8201600024       10.8078395503       15.3337086136
  C        32.1519131140       21.2714599490       10.1521804045
  C        32.7294970647       22.4441772120       10.8707827855
  C        31.9735117206       23.1175241775       11.8423741099
  C        32.5349145386       24.1630426171       12.5693785351
  C        33.8680544909       24.5596884516       12.3480132031
  C        34.6054032381       23.9053431219       11.3431326558
  C        34.0459200055       22.8570946934       10.6161260625
  C        34.4951805832       25.6322936202       13.1528675378
  C        34.4803750145       25.6021316047       14.5746282727
  C        33.9582182373       24.4910029711       15.3095770615
  C        25.7007106162        8.6200568916       15.3050915354
  C        25.6992513547        8.6155613603       12.4917320600
  C        32.0885213454       21.2163987785        5.8853672900
  C        32.6538296165       22.3823757017        5.1469089793
  C        31.9014574294       23.0604647002        4.1744268869
  C        32.4724109642       24.0963365474        3.4374857675
  C        33.8077860658       24.4881359819        3.6575240278
  C        34.5411771440       23.8268938227        4.6618085524
  C        33.9769194837       22.7844749416        5.3914184626
  C        34.4426510548       25.5744804623        2.8747355096
  C        34.4506683706       25.5739179942        1.4525263918
  C        33.9422896930       24.4783214198        0.6863832161
  C        40.6228904271       17.0937433959        0.7670320292
  C        40.6071229414       17.1084196541        3.5759485627
  C        28.7138699633       14.0958974349        5.8146337649
  C        28.0985354445       12.9532358866        5.0791526094
  C        28.8405491561       12.2368866369        4.1266076103
  C        28.2592514076       11.1811778538        3.4295837271
  C        26.9194884632       10.8102431304        3.6609213189
  C        26.1935531349       11.5124044092        4.6417666875
  C        26.7725346510       12.5716702861        5.3390086919
  C        26.2839667504        9.7154920919        2.8872062761
  C        26.2922045295        9.7204810289        1.4647418210
  C        26.8058607680       10.8215991452        0.7098603357
  C        18.1353925684        3.1811812264       10.3171715021
  C        17.4061287811        4.2783538837       11.0156867741
  C        16.3904374294        3.9999831718       11.9432590300
  C        15.7427512137        5.0399690004       12.6067489285
  C        16.0946336250        6.3837084565       12.3670313069
  C        17.0839378201        6.6532180213       11.4031761280
  C        17.7330216949        5.6158865554       10.7381156702
  C        15.4703281109        7.4913857287       13.1300969735
  C        15.4856185441        7.4906314914       14.5518062319
  C        16.1872741476        6.4970704189       15.3049555808
  C        42.9459325353       31.8596179502       10.0729176708
  C        43.6463431761       30.7719836795       10.8167795892
  C        44.5915861598       31.0933367683       11.8031299387
  C        45.1973174722       30.0878159058       12.5507968709
  C        44.8712213859       28.7346977272       12.3357053583
  C        43.9458045221       28.4203231183       11.3221081176
  C        43.3369806920       29.4254429122       10.5740558666
  C        45.4887378329       27.6553980325       13.1389276861
  C        45.4928579761       27.6810655674       14.5606235373
  C        44.8058687283       28.6891562952       15.3072782563
  C        14.8566107192        8.5630798323       15.2641936416
  C        14.8750782001        8.5631870495       12.4515230379
  C        42.9464674621       31.9616490474        5.8090629880
  C        43.6918342821       30.8855680377        5.0957442918
  C        44.6560273942       31.1915278790        4.1230486773
  C        45.2776067862       30.1719772203        3.4053376054
  C        44.9542923841       28.8215926707        3.6432900981
  C        44.0213430288       28.5238949435        4.6545765464
  C        43.3930397735       29.5406174834        5.3667718381
  C        45.5632015534       27.7242104006        2.8579513518
  C        45.5334288850       27.7175537365        1.4366487378
  C        44.8271584313       28.7078065273        0.6836734515
  C        35.0673586460       26.6632176965        0.7514526851
  C        35.0643882225       26.6241625469        3.5621280083
  C        18.1487760307        3.2471875655        5.7066157746
  C        17.4303057795        4.3439823392        4.9973215799
  C        16.4150841794        4.0527335456        4.0737387332
  C        15.7668247339        5.0833771564        3.3983516816
  C        16.1215387587        6.4286148735        3.6210287978
  C        17.1129791546        6.7119612188        4.5782396554
  C        17.7606194569        5.6830486809        5.2580279635
  C        15.4909758156        7.5242782965        2.8486117040
  C        15.4967485609        7.5075629924        1.4274851932
  C        16.1935672748        6.5059148690        0.6807690155
  H        10.6724198833       12.4654950672        3.9049362392
  H        11.6946575633       10.5506816428        2.6630448777
  H        15.3920534166       11.1690793805        4.7717766333
  H        14.3515541237       13.0718686602        6.0169839696
  H        13.3760602485       11.6310701598        1.2013582220
  H        50.3227685319       22.7485552409        3.9869999414
  H        49.3196024463       24.6230150698        2.6809183549
  H        45.6420409118       24.1610388564        4.8635925672
  H        46.6630267718       22.2900937358        6.1718771412
  H        47.6294113561       23.5758078027        1.2462971149
  H        14.8725818156        8.5885089143        4.6085413022
  H        50.2870383646       22.7027803096       12.0602812832
  H        49.2690552147       24.5757004162       13.3603405006
  H        45.6101629641       24.1087637086       11.1465517683
  H        46.6523372309       22.2533732134        9.8323295519
  H        47.6073442191       23.5517471421       14.7969115495
  H        40.6583347875       17.1264345903       11.4259021265
  H        48.6872109454       14.0947762435        7.8000774281
  H        10.6812003470       12.4663846754       12.0928865379
  H        11.6894943197       10.5244521415       13.2966151751
  H        15.3938847348       11.1595710063       11.2062058443
  H        14.3653060182       13.0879397566        9.9908519995
  H        13.3756759524       11.6220565829       14.7531195796
  H        47.9300875201       14.2185361640        9.7105845289
  H        47.7801290132       14.3737099530        6.4954313248
  H        49.0840353106       18.5522235501       10.8674426641
  H        10.4160438189       14.1342749337        7.9987626022
  H        24.4849336035        3.0429048263        3.9118958838
  H        25.6144463435        4.9094475048        2.6884263649
  H        23.2232101987        7.7605153144        4.8455158950
  H        22.1132141701        5.8846663862        6.0716178939
  H        23.8058316463        5.8046118094        1.2595071963
  H        36.3583290009       32.1963675470        3.9898121101
  H        35.2120418514       30.3782140378        2.7205632916
  H        37.4822815834       27.4420492934        4.8948910383
  H        38.6072881194       29.2734495992        6.1748233557
  H        36.9845634991       29.4638059507        1.2982345911
  H        25.6922810021        8.6421180718        4.6514716193
  H        36.4574172876       32.2624731628       12.1079883400
  H        35.3276831008       30.4615258162       13.4105174174
  H        37.5038984097       27.4961254238       11.1789269769
  H        38.6090512511       29.3095053439        9.8639089377
  H        37.0071775946       29.4897454723       14.8503583112
  H        46.1094278459       26.5875999978       11.3856477782
  H        44.6684827145       35.1162714209        7.8137368600
  H        24.4410781411        3.0409109142       12.0878438374
  H        25.5782932952        4.8779247569       13.3347482172
  H        23.1834945291        7.7706169561       11.2388032524
  H        22.0576082651        5.9217478514        9.9918699114
  H        23.8004621665        5.7990126573       14.8113132004
  H        44.9541636123       34.3906652943        9.6953459762
  H        44.9018402886       34.2069702173        6.4903652307
  H        40.6667696236       33.2097899691       10.8534390632
  H        23.1506181924        1.9583721049        8.0049764892
  H        25.8524608218       19.6424422784        3.8515755451
  H        23.6709514583       19.7072270406        2.6367669170
  H        22.3335893687       16.2834161772        4.8701235614
  H        24.5142007952       16.2397518191        6.0878134478
  H        23.7206867148       17.6659567540        1.2401894838
  H        35.1480935397       15.4814802763        4.0440956908
  H        37.2548723810       15.4122053945        2.7054321739
  H        38.7378666768       18.8082774394        4.8905908377
  H        36.6267042414       18.8587259935        6.2314788600
  H        37.2270261370       17.3550180034        1.2479676396
  H        20.3615514867       18.0282149151        4.6639810582
  H        35.2243736606       15.4243421665       12.0291032220
  H        37.3450791353       15.3775684957       13.3460277373
  H        38.7359784690       18.8426828464       11.2099870256
  H        36.6081739904       18.8735692886        9.8922924615
  H        37.2443801114       17.3582793160       14.7987031596
  H        35.1043824270       26.7221606686       11.4092435056
  H        28.5101460125       21.0870625001        7.9984430267
  H        25.7540947496       19.6299576798       12.1654856303
  H        23.5680082559       19.6833183922       13.3762201994
  H        22.3000916105       16.1807231179       11.2265983420
  H        24.4864164894       16.1489037325       10.0111862289
  H        23.6982069782       17.6382029935       14.7915243105
  H        29.0081226369       21.7137851747        9.7638119877
  H        29.1137044859       21.7636547544        6.6082011180
  H        32.1113942551       18.5232339594       10.9983388349
  H        27.4008105979       19.0766482145        8.0909548606
  H        14.8489455330       19.6516850154       12.1347047373
  H        17.0123456074       19.6996308530       13.3770692821
  H        18.3010244430       16.1874957689       11.2552202821
  H        16.1338530930       16.1556750384       10.0119290744
  H        16.9196196317       17.7094939947       14.8470716498
  H        46.0950902698       15.4423499254       12.0666504777
  H        43.9730201535       15.3885054308       13.3798376814
  H        42.5622300922       18.8300640353       11.2188376641
  H        44.6837678165       18.8576074174        9.8939826258
  H        44.0318418092       17.3230281367       14.8438971496
  H        20.2880616489       17.9208748017       11.4173151514
  H        46.0449309322       15.3782086200        4.0463458569
  H        43.9133415975       15.3112941935        2.7499947585
  H        42.5208508792       18.7817374934        4.8751133920
  H        44.6588248071       18.8348144669        6.1726390235
  H        44.0150015279       17.2947283173        1.2937157660
  H        46.1995116782       26.6827293523        4.6234152747
  H        52.7410609460       21.0625751279        8.1946356925
  H        14.8699228605       19.6828632778        3.9006190865
  H        17.0685301622       19.7716188881        2.7188224781
  H        18.3481301472       16.2600792303        4.8464356231
  H        16.1509491986       16.1947693833        6.0374364489
  H        16.9416594317       17.7373908312        1.2942794764
  H        52.3221401344       21.6732642174        6.2945207708
  H        52.0129409919       21.7018293193        9.4955872624
  H        49.0673454629       18.6075181282        5.2042476702
  H        13.2475245330       19.0164802182        7.9773751314
  H        29.9614578549       12.4723555405       12.2146665265
  H        28.9031624645       10.5461599706       13.4037775886
  H        25.2643172959       11.1926486794       11.2040822369
  H        26.3400577356       13.1090090403       10.0120014816
  H        27.1915295123       11.6737546954       14.7939731468
  H        30.9511184869       22.7954287426       12.0248592674
  H        31.9438052762       24.6852246333       13.3185061930
  H        35.6372891938       24.2021641379       11.1671018436
  H        34.6212280928       22.3258625755        9.8615119906
  H        33.5949441728       23.6266420339       14.7611436544
  H        25.7319809853        8.5958605141       11.4037859837
  H        30.8695919227       22.7621046776        4.0022243024
  H        31.8826135605       24.6205918706        2.6886295729
  H        35.5745047305       24.1182812862        4.8383342637
  H        34.5507244142       22.2512237092        6.1456916585
  H        33.5665484006       23.6040120305        1.2103414493
  H        40.6012474800       17.0746154880        4.6636889776
  H        32.5148488686       14.1337209298        8.2548844300
  H        29.8768633167       12.5141319335        3.9495224460
  H        28.8435953652       10.6250926026        2.6997569524
  H        25.1568606791       11.2395172314        4.8282011071
  H        26.2068832188       13.1287224504        6.0822625943
  H        27.1648054931       11.6986783935        1.2406995265
  H        33.3033540752       14.2097475763        6.4441168864
  H        33.4091138536       14.4151913525        9.5947576704
  H        32.2171256989       18.5247739314        5.1594062511
  H        30.2382286002       14.1961119042        8.0574549118
  H        16.1184063198        2.9634881402       12.1297279601
  H        14.9533433837        4.8206431554       13.3224695953
  H        17.3663873511        7.6860857809       11.2100488344
  H        18.5150764875        5.8185733176       10.0102988868
  H        16.7539556789        5.7398286791       14.7714501188
  H        44.8276748620       32.1404284983       11.9775176475
  H        45.9369920696       30.3416209470       13.3069103499
  H        43.6835174791       27.3782040103       11.1516659875
  H        42.6007714632       29.1900388512        9.8090216321
  H        44.2306145766       29.4370151534       14.7689992853
  H        14.8513705065        8.5465153244       11.3633003048
  H        44.8992759304       32.2342272334        3.9313253853
  H        46.0242519052       30.4132820471        2.6518662076
  H        43.7649259317       27.4841091370        4.8465704491
  H        42.6470494035       29.3177293483        6.1256873069
  H        44.2687644770       29.4707976679        1.2182222876
  H        35.0293039791       26.6299089661        4.6499369396
  H        36.6053753357       35.1344097207        8.1806325549
  H        16.1439082759        3.0131783288        3.9040650004
  H        14.9744722372        4.8566003728        2.6882788234
  H        17.3965867421        7.7474139694        4.7550564347
  H        18.5435491726        5.8935299907        5.9827245897
  H        16.7651669708        5.7557777847        1.2191711781
  H        36.2790582468       34.4825362788        6.2731968471
  H        36.3814809831       34.2089967510        9.4991648451
  H        40.5802153178       33.2027354762        5.1539034695
  H        17.4713532872        1.9478111631        7.9743042328
  H        29.1195986806       19.2171205653       12.5475532575
  H        30.4543839324       19.7473929524        3.7077542564
  H        30.9216344542       15.1070555996        3.9554192466
  H        31.5286986569       15.6304625227       12.4911047454
  H        28.2224712252       17.5124915282       14.5446159314
  H        29.8838738274       15.1093065489       14.3945931275
  H        28.3735929851       17.9772475621        1.7807550190
  H        32.3093349524       18.5911590195       15.4526830113
  H        18.8563300661        0.8697996417       12.3356142903
  H        40.5279172379       35.2289049696        3.9519162734
  H        42.3251131774       34.4197728119        3.5901421351
  H        22.0884258588        0.6920445541       12.3516146338
  H        11.5972842377       18.7126009968       12.3823352117
  H        52.2648348441       18.4309187414        3.6773774731
  H        49.2552477495       16.4768067475        3.5845286536
  H        10.1495154875       15.7982051541       12.2932764791
  H        50.8498659083       17.6923853302        3.9542290930
  H        10.0459298761       17.3944198680       12.0520233878
  H        20.2183368617        0.0030166357       12.0415310282
  H        39.1838039202       36.1245706661        3.6865484978
 Ni        30.3519040956       16.7894234511        2.5822253400
 Ni        31.4952921025       16.1774366062       -0.1679192614
 Ni        30.0559685157       18.0352452959       -0.0016074103
 Ni        30.1031462138       17.2281308769       13.0767488306
  O        10.6500530600       14.3650362381        5.4858310160
  O        12.6132434466       14.6575064339        6.5839238560
  O        49.1480611800       16.8458912029        7.9897701898
  O        50.3502602745       20.9360705108        5.6481208037
  O        48.3485229351       20.5934099952        6.6659249613
  O        11.0517110967       17.0538599970        6.5007347576
  O        50.3209219854       20.8817238448       10.4068683218
  O        48.3467396985       20.5868285401        9.3271267091
  O        49.5441023726       18.2484267512       10.0682885508
  O        12.3591209566       18.6245769706        7.9995702800
  O        48.6933238271       14.1484617650        6.7513563202
  O         8.2099088822       14.2103100583        9.3225265406
  O        10.7353827859       14.5067527603       10.6643598565
  O        12.5718001676       14.5828538506        9.3284856893
  O        22.8447706022        2.0447204157        5.4867866490
  O        21.6053460851        3.5924420548        6.5901936121
  O        42.0583501522       34.1376026242        7.9789667502
  O        37.9815195867       33.1384662797        5.5729983963
  O        39.2177002578       31.5757635229        6.6664488283
  O        20.3087668456        1.0401446960        6.5023404839
  O        38.0250494754       33.1870570917       10.4149859239
  O        39.2180471872       31.5830750217        9.3280730874
  O        40.6524825686       33.7695390288       10.0601786782
  O        18.2557881934        1.3762865558        7.9969168351
  O        44.6221828191       35.1006364593        6.7586475279
  O        24.2054723464        0.0000469970        9.3207571606
  O        22.7535347743        2.0586039124       10.5844557647
  O        21.6254703942        3.5972321403        9.3447472915
  O        27.5477316978       18.6930180515        5.4194232987
  O        26.7330285608       16.9864427919        6.6724461375
  O        30.6684715570       19.4049453580        8.0658231596
  O        33.6163109883       16.3313489792        5.7404910013
  O        34.3075600339       18.2479482882        6.7449888509
  O        29.5793827379       17.0728240242        6.5704061104
  O        33.6621480874       16.2696636384       10.3285587113
  O        34.3079041541       18.2458722373        9.4080263102
  O        31.7084602697       18.3174518037       10.1371662044
  O        30.3260776103       15.1633122360        8.0699736588
  O        28.5495294540       21.0311337791        6.9121470247
  O        28.5148553894       20.9539674746        9.4099590632
  O        27.4587015600       18.6813384707       10.6579291840
  O        26.6946192435       16.9309942911        9.4141082532
  O        13.1483830097       18.6930653884       10.5871522522
  O        13.9192015741       16.9161501305        9.4047463501
  O        50.5962798020       19.3502929720        8.0204620721
  O        47.6836177202       16.3267627828       10.4169007798
  O        46.9518682679       18.1758948324        9.3246722810
  O        11.0699605236       17.0153488586        9.4896160507
  O        47.6774320348       16.3350837857        5.6536111250
  O        46.9283115980       18.2354630375        6.6647686637
  O        49.5688525431       18.3177526346        5.9823256924
  O        10.3187306535       15.1001261397        7.9970908862
  O        52.6707523924       21.0279030729        9.2418224630
  O        12.1468049116       20.8912414538        6.6732811654
  O        13.1073656923       18.6141128119        5.3256740803
  O        13.9577481592       16.9877358758        6.6643297444
  O        30.0021528762       14.4368978019       10.6618718666
  O        28.0789814185       14.6599054037        9.4785419599
  O        32.1087730625       16.9088308325        8.0582461934
  O        30.9485096891       20.9490172837       10.4187087780
  O        32.9177386593       20.6595829465        9.3279699204
  O        29.5702258494       17.0773957691        9.5699199002
  O        30.8615026659       20.8975039536        5.6565133183
  O        32.8729138388       20.5892882263        6.6652521492
  O        31.6662238481       18.2490076964        5.9085095591
  O        28.2878653840       18.6806656575        8.0771479394
  O        32.4938945759       14.2088049985        9.3242568304
  O        32.4055715353       14.2195358631        6.8173949845
  O        29.9061767462       14.4372293125        5.4978568400
  O        28.0093244538       14.6459564337        6.7341884086
  O        17.8892890481        1.9667217520       10.6628087582
  O        18.9563602031        3.5271704980        9.4080221672
  O        39.1686896389       34.1387953048        7.9972814656
  O        43.2802313625       33.0590404261       10.3317042788
  O        42.0344225588       31.5065217952        9.2416553303
  O        20.3181463751        1.0370830044        9.4799943278
  O        43.2760052298       33.1825954650        5.5749118079
  O        42.0051583653       31.5841174787        6.5830402130
  O        40.5790362584       33.7751312412        5.9362252764
  O        22.3675940398        1.3849636716        7.9979894839
  O        36.6727968011       35.0999005663        9.2332794364
  O        16.4457414861        0.0644741597        6.6683348533
  O        17.9365467109        2.0434753606        5.3264374010
  O        18.9191416853        3.5931554431        6.6660424674
  O        29.6554645085       19.2780201540        4.0062268246
  O        29.8234969656       18.8165257780       12.0005644772
  O        31.3840869493       15.9733994047        3.9987847792
  O        31.3862066885       16.4190402760       11.9238111810
  O        32.1008412929       16.7798489730        1.4909461932
  O        28.9873924667       17.3626992426        1.3400659022
  O        30.6319921449       15.6919081313       14.1801595589
  O        31.6503088580       18.0285541596       15.0046800648
  O        28.9783800475       18.0950599543       14.3464987316
  O        39.4567892924       35.2438393608        4.0019943020
  O        19.1442479315        0.0055890072       11.9903085501
  O        41.9695663396       35.1727691302        4.0872580931
  O        21.6917115600       -0.0693215860       11.8960731859
  O        51.3650179731       18.6142760644        4.0053639279
  O        10.7514241802       18.7471167411       11.9049245544
  O        50.0797559340       16.4128098718        4.0916968078
  O         9.5240334592       16.4831578578       11.9912027956
 Zr         9.2970523229       16.0525987942        6.1824694996
 Zr        49.8363885504       16.0066026670        9.7463592014
 Zr        22.0735079341        0.0306442427        6.1887767022
 Zr        42.4614350263       35.1541573586        9.8008843755
 Zr        29.5950910952       19.1108996534        6.3326214469
 Zr        29.5883731674       19.1605666786        9.8868089758
 Zr        11.0381824480       19.0517353382        9.8276687505
 Zr        11.0439650124       19.1546953877        6.2509092335
 Zr        31.3629540766       16.0985416660        9.8355505273
 Zr        31.4085559935       16.0238333276        6.2738095035
 Zr        18.6017214576       -0.0004513410        9.7637001181
 Zr        18.5070595453       -0.0066577097        6.2140437816
 Zr        12.3023068763       16.3236600911        7.9900130050
 Zr        48.6167427102       18.8329842438        8.0103495117
 Zr        20.3160921473        2.4747430752        7.9911568000
 Zr        40.6440191878       32.6877108439        7.9784287476
 Zr        28.3333882895       16.3512952561        8.0843261741
 Zr        32.6525353749       18.8631425075        8.0780967785
  H        29.2428487082       16.7553443503        3.5198759185
  H        29.7061976868       18.3381404122        3.6021459943
  H        32.5366963730       16.0838125084        2.0178140410
  H        31.2396611955       14.8644804388        0.4094475561
