     573
 i =      155, E =     -4762.8164887149
  C        11.8588907799       14.0535499194        5.7414941203
  C        12.4564300478       12.8906156764        5.0231971227
  C        11.7046431491       12.1715252019        4.0817385704
  C        12.2810334316       11.1093207560        3.3894005805
  C        13.6216879914       10.7397229100        3.6169669898
  C        14.3549721536       11.4435042908        4.5901841277
  C        13.7820785086       12.5084920163        5.2816796213
  C        14.2612063136        9.6490387732        2.8435858984
  C        14.2564539679        9.6569101759        1.4218858307
  C        13.7432018553       10.7589990421        0.6679881417
  C        49.1268665039       21.2332222485        5.8796927896
  C        48.5500663393       22.4012124693        5.1525755830
  C        49.3000890853       23.0685633040        4.1716192006
  C        48.7331433958       24.1077068329        3.4384195269
  C        47.4026002159       24.5092839453        3.6670503264
  C        46.6716346256       23.8603665896        4.6805109436
  C        47.2341142879       22.8154650682        5.4098493301
  C        46.7723212250       25.5869787924        2.8698011245
  C        46.7611565243       25.5573275218        1.4480424715
  C        47.2610582121       24.4422089543        0.7045652503
  C        14.8603975008        8.5705824092        0.7086153512
  C        14.8920789980        8.5971500925        3.5202288161
  C        49.1132498908       21.2033916216       10.1454366224
  C        48.5278216536       22.3647922936       10.8726642418
  C        49.2670496751       23.0256025356       11.8654908620
  C        48.6906972543       24.0601818233       12.5969252461
  C        47.3602433090       24.4568132314       12.3587504251
  C        46.6397936655       23.8117745223       11.3353500664
  C        47.2133800542       22.7758442418       10.6036173706
  C        46.7217575781       25.5318082411       13.1497311188
  C        46.7333633882       25.5281433190       14.5714339204
  C        47.2487569896       24.4289028835       15.3278052874
  C        40.6368219187       17.1204010958       15.3213482966
  C        40.6575241363       17.1632256076       12.5128409678
  C        11.8830498090       14.0865516876       10.2854626873
  C        12.4724328324       12.9107917464       10.9897760182
  C        11.7148363047       12.1774409189       11.9156949286
  C        12.2814255711       11.0949801289       12.5841091598
  C        13.6203046409       10.7214024370       12.3524115744
  C        14.3584008603       11.4371525818       11.3918477206
  C        13.7929540727       12.5183184174       10.7191560195
  C        14.2538987169        9.6246364389       13.1228190040
  C        14.2525796220        9.6445553590       14.5446615888
  C        13.7426680920       10.7534866337       15.2917333654
  C        22.5106980768        3.2455442675        5.7530746039
  C        23.2202638094        4.3544357979        5.0542482937
  C        24.2194913989        4.0824080623        4.1081515536
  C        24.8395345171        5.1273943418        3.4277901473
  C        24.4755839452        6.4666120410        3.6726900172
  C        23.5048665689        6.7301244331        4.6561367758
  C        22.8806805712        5.6872252609        5.3352105084
  C        25.0726990155        7.5782345303        2.8977937804
  C        25.0497431782        7.5684924243        1.4761512585
  C        24.3552199831        6.5639703697        0.7297912995
  C        38.2988652483       31.9290695450        5.8523076058
  C        37.5581801152       30.8407108485        5.1503561837
  C        36.5921742589       31.1485629905        4.1800471743
  C        35.9625849894       30.1311368354        3.4684274953
  C        36.2841190824       28.7801640148        3.7044030596
  C        37.2198190816       28.4795819876        4.7121354497
  C        37.8532915752       29.4960848974        5.4231885523
  C        35.6729861453       27.6930272176        2.9058344366
  C        35.7100368944       27.7088440656        1.4842170413
  C        36.4252772390       28.7078283041        0.7510409911
  C        25.6689054059        8.6404567306        0.7560541026
  C        25.6577600363        8.6598938739        3.5688498051
  C        38.3307395991       31.9612347564       10.1603024135
  C        37.6137902549       30.8885939070       10.9104330553
  C        36.6806578006       31.1995210607       11.9115876943
  C        36.0699804608       30.1835392484       12.6449070893
  C        36.3773465583       28.8297622761       12.4013853723
  C        37.2917518674       28.5285942465       11.3732157880
  C        37.9042594069       29.5412319344       10.6410228848
  C        35.7605081721       27.7326639789       13.1836327079
  C        35.7549762184       27.7289608861       14.6061608250
  C        36.4453126169       28.7183219653       15.3744653631
  C        46.1353573309       26.6207877496       15.2815619285
  C        46.0878639947       26.5801903714       12.4736659984
  C        22.4609904621        3.2570511286       10.2589763873
  C        23.1534226981        4.3669141531       10.9826946562
  C        24.1536887223        4.0834119428       11.9264329724
  C        24.7791586149        5.1150986117       12.6229504716
  C        24.4252557633        6.4608557638       12.3987123284
  C        23.4483244046        6.7374839309       11.4232820797
  C        22.8180315780        5.7061641606       10.7275107754
  C        25.0524285105        7.5615760818       13.1735312164
  C        25.0399391706        7.5591028913       14.5965250496
  C        24.3478194555        6.5611967281       15.3528997478
  C        26.6294326522       17.8620873962        5.7538978108
  C        25.3236219086       17.9181587928        5.0294847239
  C        25.0758456365       18.9002035166        4.0580181806
  C        23.8571892827       18.9278266954        3.3816799521
  C        22.8534752042       17.9748985213        3.6521809363
  C        23.0997559480       17.0160576644        4.6528759543
  C        24.3175680587       16.9852911020        5.3294106735
  C        21.5780222868       17.9591167929        2.8926840555
  C        21.5766614596       17.9219392073        1.4706266191
  C        22.7807095209       17.7794384169        0.7110492540
  C        34.4766110915       17.2468413800        5.9585181761
  C        35.7646838597       17.1769845489        5.2125592142
  C        35.9473895789       16.2044760940        4.2170697282
  C        37.1183550279       16.1805328323        3.4651397935
  C        38.1368973484       17.1265355581        3.6907533204
  C        37.9574653766       18.0772088059        4.7139063477
  C        36.7835742380       18.1081933401        5.4619958540
  C        39.3850021902       17.1250236323        2.8959519959
  C        39.3785360869       17.1345869568        1.4741777187
  C        38.1711431278       17.2523197873        0.7159115313
  C        20.3297542603       17.9403027521        0.7632403386
  C        20.3536416734       17.9676547853        3.5763467505
  C        34.5055409905       17.2141469617       10.1410758787
  C        35.8020368236       17.1518993445       10.8735776641
  C        36.0108934624       16.1680504922       11.8514478556
  C        37.1876806737       16.1574411992       12.5942034499
  C        38.1839504739       17.1278539980       12.3749414055
  C        37.9813231084       18.0878941146       11.3660016730
  C        36.8006488505       18.1060004158       10.6286838116
  C        39.4263560279       17.1459614002       13.1762845359
  C        39.4002823899       17.1464967450       14.5972654387
  C        38.1815064430       17.2556763438       15.3387126671
  C        35.1120170408       26.6543168283       15.3065578482
  C        35.1742710039       26.6614562458       12.4971726167
  C        26.5720605859       17.8283310341       10.3270351262
  C        25.2574566539       17.8721288414       11.0318985111
  C        24.9957116934       18.8701205849       11.9828033949
  C        23.7770212757       18.8935637923       12.6549169888
  C        22.7912744667       17.9189666621       12.4002443071
  C        23.0479697048       16.9458593423       11.4174480498
  C        24.2672374629       16.9201497905       10.7433769153
  C        21.5271246653       17.8995618914       13.1719513062
  C        21.5506319159       17.8899028553       14.5933436737
  C        22.7680877350       17.7643431921       15.3349119712
  C        14.0463762025       17.8290706775       10.2882131519
  C        15.3506667246       17.8865744724       11.0125866287
  C        15.6080332769       18.8912748598       11.9583445883
  C        16.8171655689       18.9122992216       12.6506903494
  C        17.8025625971       17.9313519993       12.4192589205
  C        17.5500145908       16.9510106658       11.4411275077
  C        16.3404487640       16.9254700809       10.7502550169
  C        19.0712807039       17.9136999105       13.1879612204
  C        19.0695744327       17.9142328852       14.6104404304
  C        17.8626237345       17.8211386565       15.3726310933
  C        46.8067828832       17.2195736666       10.1588911557
  C        45.5192697452       17.1605240919       10.9065986878
  C        45.3140865884       16.1826043751       11.8918467665
  C        44.1343610316       16.1674044496       12.6304238375
  C        43.1319401198       17.1306050240       12.4049157552
  C        43.3345791325       18.0885761068       11.3934446728
  C        44.5147986932       18.1074287342       10.6556087047
  C        41.8799640697       17.1427262513       13.1930230154
  C        41.8843818998       17.1358131973       14.6143208919
  C        43.0932839138       17.2272673122       15.3731049056
  C        20.3162619976       17.9235320618       15.3184217199
  C        20.2951604926       17.8909370661       12.5053695365
  C        46.7870798821       17.2304719385        5.8906126220
  C        45.4844630204       17.1236431932        5.1765580834
  C        45.2667995080       16.1234887177        4.2171002579
  C        44.0797114001       16.0967726266        3.4899892173
  C        43.0825760235       17.0671974541        3.7064552018
  C        43.2901062872       18.0365571823        4.7051882209
  C        44.4783068629       18.0697100063        5.4272866117
  C        41.8380281592       17.0907180123        2.9089391656
  C        41.8630050031       17.1073838089        1.4886317841
  C        43.0832310611       17.2111097998        0.7495229097
  C        46.1531719568       26.6372432458        0.7263204798
  C        46.1624809869       26.6561324459        3.5359579418
  C        14.0461989446       17.8334702490        5.7088552563
  C        15.3675877114       17.9129511975        5.0187977125
  C        15.6365160482       18.9298362840        4.0902257267
  C        16.8649494499       18.9729755779        3.4343975467
  C        17.8531112202       17.9986327593        3.6811497217
  C        17.5910278971       17.0108816717        4.6482035614
  C        16.3644538752       16.9670522512        5.3074360715
  C        19.1202295539       17.9777289352        2.9107256304
  C        19.0950669210       17.9464255181        1.4891147585
  C        17.8750654967       17.8353279663        0.7489684171
  C        28.8098231659       14.0945899050       10.3889681321
  C        28.1915535794       12.9246430552       11.0789804461
  C        28.9065371130       12.1948464518       12.0403883452
  C        28.3041351818       11.1224042890       12.6934813636
  C        26.9725441758       10.7560789947       12.4101252150
  C        26.2797255548       11.4670937153       11.4138024080
  C        26.8797526991       12.5396357319       10.7588335653
  C        26.3001634846        9.6779963622       13.1711544157
  C        26.2794578278        9.7092662330       14.5923090142
  C        26.7744326143       10.8264878598       15.3374680543
  C        32.1811891739       21.2443833662       10.1441082359
  C        32.7750399922       22.4103793197       10.8645444617
  C        32.0196473452       23.0933680171       11.8304896854
  C        32.5857574776       24.1340296980       12.5606969495
  C        33.9237173896       24.5193901410       12.3480762832
  C        34.6623188449       23.8539719961       11.3512568320
  C        34.0981491263       22.8085975320       10.6217846186
  C        34.5474948224       25.5955669676       13.1526149676
  C        34.5220383287       25.5719967384       14.5746246951
  C        33.9967641398       24.4632285663       15.3109646305
  C        25.6699741147        8.6312286245       15.3110252968
  C        25.6689489698        8.6236129291       12.4977463929
  C        32.0811462093       21.2087212944        5.8834730747
  C        32.6444401092       22.3773971537        5.1455754778
  C        31.8984477547       23.0479155561        4.1631859785
  C        32.4719043871       24.0836625322        3.4272153512
  C        33.8034791794       24.4827544035        3.6577667765
  C        34.5296804391       23.8294428826        4.6723932379
  C        33.9631261581       22.7876104133        5.4009773847
  C        34.4435631042       25.5667867118        2.8752374399
  C        34.4658676100       25.5586617496        1.4530546465
  C        33.9676082330       24.4577454795        0.6876908021
  C        40.6254630544       17.1097950658        0.7655910532
  C        40.6085771459       17.1186542951        3.5744721624
  C        28.7116541881       14.0968399549        5.8170232115
  C        28.0913805776       12.9579001468        5.0797431714
  C        28.8257854235       12.2478606480        4.1168853959
  C        28.2403377820       11.1941929962        3.4204361247
  C        26.9036581264       10.8193073071        3.6627677418
  C        26.1849107388       11.5159110053        4.6525739965
  C        26.7682380977       12.5733102939        5.3490100917
  C        26.2649820889        9.7251029830        2.8913714176
  C        26.2633629455        9.7333478460        1.4690982234
  C        26.7645971583       10.8397201376        0.7136121480
  C        18.1354065692        3.1810632914       10.3172562863
  C        17.4061530029        4.2782268747       11.0158203925
  C        16.3904151114        3.9999062935       11.9433510569
  C        15.7427294021        5.0399237646       12.6067969466
  C        16.0946981914        6.3836423940       12.3670974834
  C        17.0841162568        6.6531147999       11.4033528813
  C        17.7331907551        5.6157455709       10.7383451545
  C        15.4703590210        7.4913296250       13.1301181789
  C        15.4856197327        7.4905886215       14.5518235435
  C        16.1872833627        6.4970416068       15.3049815515
  C        42.9458845950       31.8595956167       10.0728994798
  C        43.6462650357       30.7719269210       10.8167890824
  C        44.5914947909       31.0932564600       11.8031516360
  C        45.1972174962       30.0877116951       12.5507981531
  C        44.8710785504       28.7346061306       12.3357259607
  C        43.9456484916       28.4202645893       11.3221350018
  C        43.3368312580       29.4253995764       10.5740954743
  C        45.4886119921       27.6553045996       13.1389357108
  C        45.4927130269       27.6809444652       14.5606309691
  C        44.8056475629       28.6889940544       15.3072733034
  C        14.8566352339        8.5630607970       15.2641899464
  C        14.8751266442        8.5631229005       12.4515226393
  C        42.9464458872       31.9616309169        5.8090091604
  C        43.6917379979       30.8855170405        5.0956225818
  C        44.6560322476       31.1914627613        4.1230274707
  C        45.2775972829       30.1718899045        3.4053292159
  C        44.9541804945       28.8215262921        3.6432399537
  C        44.0211354816       28.5238424980        4.6544371079
  C        43.3928353165       29.5405852764        5.3666106382
  C        45.5631237176       27.7241276226        2.8579423114
  C        45.5332814541       27.7174259450        1.4366430936
  C        44.8269596804       28.7076419744        0.6836683981
  C        35.0862300300       26.6459473607        0.7519401515
  C        35.0589152716       26.6205664729        3.5626812983
  C        18.1485964667        3.2471157481        5.7066256274
  C        17.4301901077        4.3438870113        4.9972414936
  C        16.4149658146        4.0526547904        4.0736614739
  C        15.7667185442        5.0833186045        3.3982921809
  C        16.1214301753        6.4285485937        3.6210314373
  C        17.1128661185        6.7118819378        4.5782478141
  C        17.7604794040        5.6829464692        5.2580191750
  C        15.4908867925        7.5242228120        2.8486158948
  C        15.4967064479        7.5075302114        1.4274889737
  C        16.1935466742        6.5058818418        0.6807931707
  H        10.6724478187       12.4655215736        3.9048806035
  H        11.6946918277       10.5506871491        2.6630207494
  H        15.3921100987       11.1691512233        4.7716776386
  H        14.3516522719       13.0719617792        6.0168433928
  H        13.3762017624       11.6311219071        1.2013105647
  H        50.3228096420       22.7485343481        3.9869159552
  H        49.3196318733       24.6230138763        2.6808721192
  H        45.6421304973       24.1611042398        4.8636618850
  H        46.6631546827       22.2901385504        6.1719245540
  H        47.6295972933       23.5758429060        1.2462713725
  H        14.8725336728        8.5885021608        4.6085383362
  H        50.2871519161       22.7028508787       12.0602856826
  H        49.2691170276       24.5757299636       13.3603472316
  H        45.6103453024       24.1089125805       11.1463706678
  H        46.6525786498       22.2535575798        9.8321229984
  H        47.6075461364       23.5517970423       14.7968889848
  H        40.6643965567       17.1362034128       11.4249354312
  H        48.6872395822       14.0948169257        7.8001117383
  H        10.6813103727       12.4664086536       12.0929536577
  H        11.6895729050       10.5244323363       13.2966334096
  H        15.3939247335       11.1594708620       11.2061151985
  H        14.3653875969       13.0878755470        9.9908435640
  H        13.3758337809       11.6220881935       14.7530798031
  H        47.9301617726       14.2184977288        9.7106424141
  H        47.7801500361       14.3738031823        6.4954583117
  H        49.0845763442       18.5524824022       10.8675817513
  H        10.4161657701       14.1342336365        7.9986774937
  H        24.4880905352        3.0459717976        3.9160772680
  H        25.6147008542        4.9162922436        2.6943260752
  H        23.2162544045        7.7607612440        4.8518441487
  H        22.1089307610        5.8813947167        6.0759758633
  H        23.7959656678        5.8055914297        1.2698527469
  H        36.3598888597       32.1928804540        3.9852256973
  H        35.2142494781       30.3741057453        2.7172243299
  H        37.4761155282       27.4393114579        4.9019995797
  H        38.6014192220       29.2713612836        6.1797752870
  H        36.9895123846       29.4556400385        1.3005817668
  H        25.6885791964        8.6453172386        4.6568467382
  H        36.4531567521       32.2441323549       12.1118213509
  H        35.3397355970       30.4319188918       13.4119408240
  H        37.5433186747       27.4881115831       11.1785053292
  H        38.6308498900       29.3122332538        9.8651930552
  H        37.0258043869       29.4740202718       14.8529594954
  H        46.1094314669       26.5876081479       11.3856327689
  H        44.6684062410       35.1162964843        7.8138650009
  H        24.4321254682        3.0457403584       12.0960420814
  H        25.5582481460        4.8871586974       13.3472881653
  H        23.1629174953        7.7714509667       11.2403063099
  H        22.0480527448        5.9181849983        9.9892742269
  H        23.7822060690        5.8012921954       14.8215238287
  H        44.9542383028       34.3908253560        9.6954833119
  H        44.9019783119       34.2069697428        6.4904983950
  H        40.6668673820       33.2096101712       10.8534781499
  H        23.1502528045        1.9583951403        8.0054298741
  H        25.8493555030       19.6366045464        3.8503038916
  H        23.6678535916       19.6963539077        2.6352799830
  H        22.3372474287       16.2708218732        4.8700736440
  H        24.5181667865       16.2324099745        6.0879699742
  H        23.7201354309       17.6498950838        1.2405084653
  H        35.1527905990       15.4826934892        4.0416981138
  H        37.2600874137       15.4205349659        2.6998653944
  H        38.7379945733       18.8139898251        4.8919876472
  H        36.6268712026       18.8579289105        6.2340652699
  H        37.2304792204       17.3719033882        1.2460034874
  H        20.3614648285       18.0163331465        4.6638621700
  H        35.2303483553       15.4314025498       12.0265489615
  H        37.3496170767       15.3927727891       13.3507434975
  H        38.7458778812       18.8426435333       11.1938588456
  H        36.6203185384       18.8645232482        9.8705822019
  H        37.2487752064       17.3756470698       14.7948903772
  H        35.1591833773       26.6842794227       11.4091563953
  H        28.5101224913       21.0898935418        7.9946594904
  H        25.7600168061       19.6190040420       12.1778088649
  H        23.5736400411       19.6712164682       13.3879116796
  H        22.2954901404       16.1863503089       11.2152898796
  H        24.4814062957       16.1568816814        9.9991283691
  H        23.6980141450       17.6245130352       14.7918182226
  H        28.9927845566       21.7212585331        9.7723794288
  H        29.1178181594       21.7602578328        6.6060909200
  H        32.1720845818       18.5449501451       10.9602804304
  H        27.3981073905       19.0706680724        8.0837906882
  H        14.8500651384       19.6510409156       12.1354077821
  H        17.0136074208       19.6975092150       13.3775747280
  H        18.3007386772       16.1859651852       11.2538708567
  H        16.1334458114       16.1554741292       10.0108652295
  H        16.9196437480       17.7056440249       14.8461840905
  H        46.0959401305       15.4484366871       12.0712925083
  H        43.9737552815       15.4015040129       13.3859511506
  H        42.5675676867       18.8396776293       11.2164992810
  H        44.6893242237       18.8605545586        9.8908375926
  H        44.0349681427       17.3429297507       14.8441584278
  H        20.2887422142       17.9207882913       11.4172388871
  H        46.0437544144       15.3827466144        4.0425074305
  H        43.9122485833       15.3217622738        2.7452253122
  H        42.5238300628       18.7894068828        4.8776128611
  H        44.6619090415       18.8368421050        6.1754745443
  H        44.0171897527       17.3130648877        1.2944938588
  H        46.1995084283       26.6827169179        4.6233962323
  H        52.7411679262       21.0626089357        8.1946542867
  H        14.8726872438       19.6803173537        3.8989033276
  H        17.0716043696       19.7645962868        2.7173390269
  H        18.3450634595       16.2520019589        4.8468353472
  H        16.1477005416       16.1911426519        6.0376849647
  H        16.9414360534       17.7305628247        1.2934723491
  H        52.3223572614       21.6733234769        6.2944109881
  H        52.0130765629       21.7019199095        9.4955900498
  H        49.0677322487       18.6076446484        5.2040985662
  H        13.2476888971       19.0162908606        7.9773383628
  H        29.9318813176       12.4832994385       12.2616471794
  H        28.8605726795       10.5553806073       13.4366518195
  H        25.2507365502       11.1949839528       11.1878196429
  H        26.3417350112       13.1096865801       10.0054242183
  H        27.1362713288       11.6957648231       14.7967510027
  H        30.9924239212       22.7819786336       12.0045060137
  H        31.9937345256       24.6630691152       13.3043331054
  H        35.6981474261       24.1407589066       11.1814905230
  H        34.6747703417       22.2700574287        9.8731435879
  H        33.6400445998       23.5957920148       14.7631113994
  H        25.7041423200        8.6015949554       11.4099334233
  H        30.8703931550       22.7421030757        3.9814299060
  H        31.8867982846       24.6016108714        2.6703005967
  H        35.5598956188       24.1262092469        4.8579633755
  H        34.5320422567       22.2603438069        6.1630932564
  H        33.5885663195       23.5857193779        1.2130877696
  H        40.6022109011       17.0819890880        4.6621096748
  H        32.5158784232       14.1340961664        8.2560403985
  H        29.8596225814       12.5284973787        3.9314203721
  H        28.8187275680       10.6425046944        2.6825874642
  H        25.1504501387       11.2401868497        4.8470347079
  H        26.2084166380       13.1263953216        6.0995743021
  H        27.1174877787       11.7194834564        1.2441189015
  H        33.3050357086       14.2106622571        6.4450635261
  H        33.4079967853       14.4103468762        9.6000676107
  H        32.2329857608       18.5271248217        5.1747729278
  H        30.2248635807       14.1926852112        8.0558215238
  H        16.1183030400        2.9634210201       12.1297622188
  H        14.9532631368        4.8206190972       13.3224611471
  H        17.3666520729        7.6859724843       11.2102940207
  H        18.5153060280        5.8184210913       10.0105910293
  H        16.7539975001        5.7398141721       14.7714917543
  H        44.8276185700       32.1403457859       11.9775117757
  H        45.9368933781       30.3415016267       13.3069148736
  H        43.6833314002       27.3781507104       11.1517091523
  H        42.6006431456       29.1900237884        9.8090325443
  H        44.2303671678       29.4368296452       14.7689878815
  H        14.8514553661        8.5464311348       11.3632991943
  H        44.8993514330       32.2341551599        3.9313496330
  H        46.0243021633       30.4131633976        2.6519067251
  H        43.7646217618       27.4840711168        4.8463831827
  H        42.6467392335       29.3177476693        6.1254383653
  H        44.2685457068       29.4706105801        1.2182304383
  H        35.0150638619       26.6310980768        4.6501529382
  H        36.6053710014       35.1341452978        8.1806145154
  H        16.1438336283        3.0130976502        3.9039238674
  H        14.9743777843        4.8565554758        2.6882018800
  H        17.3964810435        7.7473287752        4.7550834255
  H        18.5434220915        5.8934168359        5.9827034268
  H        16.7651523440        5.7557623414        1.2192152718
  H        36.2789155958       34.4824292816        6.2731337865
  H        36.3811989880       34.2089274519        9.4993354495
  H        40.5799838225       33.2024383379        5.1538479616
  H        17.4710925204        1.9475075800        7.9742027389
  H        29.0559933624       19.2340565565       12.5297486074
  H        30.4687302464       19.5453094925        3.6501890520
  H        31.0044611768       15.0194977710        3.9542273162
  H        31.4509316637       15.5279562351       12.4696736790
  H        28.0232579517       17.6750596776       14.4184362062
  H        29.7086169731       15.0895346866       14.4313475472
  H        28.3772156078       17.8903898312        1.7948537284
  H        32.2337665973       18.6092401036       14.6178258028
  H        18.8540297306        0.8692978562       12.3351623340
  H        40.5280516500       35.2288773913        3.9519687109
  H        42.3249976455       34.4197333974        3.5901348048
  H        22.0878749689        0.6921019203       12.3515893335
  H        11.5969308871       18.7130112793       12.3826122977
  H        52.2648611676       18.4310632089        3.6772072432
  H        49.2552386594       16.4768536838        3.5845627567
  H        10.1502491668       15.7982358220       12.2929357569
  H        50.8499840648       17.6923678432        3.9542072660
  H        10.0462664582       17.3945114988       12.0519758125
  H        20.2155495031        0.0025136473       12.0418765740
  H        39.1838511601       36.1245564042        3.6865722853
 Ni        30.3102297045       16.6687808417        2.5844964020
 Ni        31.3246507304       16.1785739304       -0.1690787594
 Ni        29.9674633269       18.0912732544       -0.1637462741
 Ni        30.3102274289       17.3986060429       13.0776034712
  O        10.6500698600       14.3650652339        5.4858278473
  O        12.6132706277       14.6575094674        6.5838790600
  O        49.1481926556       16.8458378216        7.9897679294
  O        50.3502740133       20.9360039081        5.6480521346
  O        48.3485643665       20.5934023567        6.6659049208
  O        11.0518285514       17.0537898182        6.5007528711
  O        50.3210441984       20.8817455515       10.4069003781
  O        48.3467515392       20.5868746904        9.3271701381
  O        49.5442178255       18.2484273165       10.0682874735
  O        12.3591870639       18.6245950090        7.9996614906
  O        48.6933210486       14.1484767779        6.7513648887
  O         8.2099532769       14.2102992599        9.3225338276
  O        10.7354214029       14.5067298979       10.6642830767
  O        12.5718283309       14.5828384689        9.3284698222
  O        22.8447419627        2.0446008016        5.4870023355
  O        21.6046529170        3.5919187385        6.5908469346
  O        42.0582071882       34.1374798996        7.9789777914
  O        37.9813025056       33.1373010332        5.5726188196
  O        39.2174962481       31.5753705915        6.6661351668
  O        20.3085835792        1.0398037951        6.5022121785
  O        38.0244803883       33.1851494909       10.4157144664
  O        39.2183640658       31.5829327745        9.3274900626
  O        40.6522761105       33.7693773590       10.0602341402
  O        18.2556093984        1.3760952232        7.9968775007
  O        44.6221798818       35.1006006288        6.7587206932
  O        24.2054086073        0.0000607746        9.3207704298
  O        22.7532115419        2.0586123523       10.5843593403
  O        21.6247131229        3.5964308440        9.3434116913
  O        27.5455669516       18.6932163043        5.4211069564
  O        26.7338581724       16.9853048198        6.6742692003
  O        30.6716422555       19.4002423383        8.0626392941
  O        33.6196788983       16.3301598809        5.7384857708
  O        34.3092573730       18.2470652504        6.7427094741
  O        29.5822584824       17.0702052808        6.5718170339
  O        33.6729935042       16.2671096599       10.3235188503
  O        34.3095998536       18.2455479084        9.4065017049
  O        31.7077583008       18.3084358257       10.1408796386
  O        30.3242602869       15.1587309918        8.0741699282
  O        28.5496087427       21.0311738489        6.9109007290
  O        28.5143684550       20.9565916615        9.4089837483
  O        27.4595811511       18.6792067443       10.6601067954
  O        26.6950791227       16.9301989190        9.4140521802
  O        13.1484490393       18.6930152303       10.5871578218
  O        13.9191790810       16.9161558571        9.4047457412
  O        50.5964663644       19.3503297616        8.0204371840
  O        47.6837863317       16.3267097971       10.4168675148
  O        46.9524772369       18.1761310732        9.3241603251
  O        11.0700554146       17.0153403608        9.4895898074
  O        47.6772374989       16.3350980346        5.6534870105
  O        46.9289419342       18.2355509311        6.6651200926
  O        49.5689670823       18.3177357659        5.9822911671
  O        10.3187004992       15.1000717678        7.9970695826
  O        52.6707795484       21.0278980696        9.2418150826
  O        12.1468387049       20.8912534763        6.6732755451
  O        13.1076071925       18.6140138008        5.3256006476
  O        13.9575317158       16.9875825025        6.6645096399
  O        29.9923043999       14.4441469597       10.7265242564
  O        28.0889185317       14.6563338928        9.4898783872
  O        32.1395757568       16.8664305220        8.0574799220
  O        30.9681711892       20.9547790642       10.4061699820
  O        32.9489909653       20.6045061156        9.3379159499
  O        29.5735803101       17.0778121044        9.5768815672
  O        30.8536669316       20.8867055454        5.6530837503
  O        32.8694384777       20.5876619563        6.6645667612
  O        31.6712959884       18.2428312212        5.9122380906
  O        28.2876160735       18.6803239489        8.0765731209
  O        32.4938875848       14.2049522427        9.3248656367
  O        32.4064652694       14.2163248191        6.8165965429
  O        29.9042266474       14.4341865338        5.5006434593
  O        28.0083561927       14.6475054061        6.7374659850
  O        17.8892506290        1.9665781913       10.6627982918
  O        18.9562171411        3.5271268637        9.4080136619
  O        39.1686143798       34.1386918761        7.9972162072
  O        43.2802184466       33.0589832170       10.3317185715
  O        42.0343952014       31.5064664096        9.2416471451
  O        20.3177719805        1.0367763615        9.4802458507
  O        43.2759830615       33.1825696643        5.5749283466
  O        42.0051709820       31.5841265040        6.5830319324
  O        40.5789757753       33.7749880836        5.9360582811
  O        22.3674431536        1.3847148186        7.9980451612
  O        36.6728132273       35.0997170236        9.2333148640
  O        16.4457031729        0.0642965308        6.6683174743
  O        17.9365230358        2.0433921864        5.3263850886
  O        18.9190011764        3.5931391014        6.6659909869
  O        29.6601496414       19.1369857332        4.0063255734
  O        29.8275456042       18.9787880858       11.9835774656
  O        31.4217482156       15.9068293561        3.9921958545
  O        31.5139804469       16.3385376536       11.9211162850
  O        31.9452367346       16.9299354289        1.4200155938
  O        29.0633178535       17.3750927362        1.3399173392
  O        30.5113774339       15.6013153647       14.2403951727
  O        31.5221224488       17.9503945987       14.6516487455
  O        28.8088300396       18.2369463340       14.3102331889
  O        39.4568142738       35.2438066125        4.0019936426
  O        19.1419737806        0.0048053239       11.9904978020
  O        41.9695222691       35.1727466692        4.0872729530
  O        21.6913575112       -0.0692778656       11.8959141453
  O        51.3650683342       18.6142701352        4.0053711170
  O        10.7511911283       18.7471828483       11.9049526039
  O        50.0797554267       16.4128009544        4.0916952004
  O         9.5244961172       16.4831084894       11.9912324001
 Zr         9.2973186489       16.0525970326        6.1825113616
 Zr        49.8367140853       16.0065561528        9.7463551776
 Zr        22.0735290678        0.0305799331        6.1888632958
 Zr        42.4613021524       35.1540852841        9.8010509619
 Zr        29.5942337951       19.1065214311        6.3308665523
 Zr        29.5904490378       19.1748271277        9.8837543345
 Zr        11.0384267965       19.0517162814        9.8277029177
 Zr        11.0442967726       19.1546640735        6.2508458312
 Zr        31.3724236130       16.0890977754        9.8441352769
 Zr        31.4070050655       16.0108518034        6.2651250192
 Zr        18.6014246644       -0.0009584456        9.7634635890
 Zr        18.5069832379       -0.0069822046        6.2137992345
 Zr        12.3025808779       16.3236139798        7.9900690731
 Zr        48.6173024175       18.8331169056        8.0103030515
 Zr        20.3155448539        2.4742629046        7.9909960649
 Zr        40.6438581601       32.6875428428        7.9782434714
 Zr        28.3400149459       16.3515390593        8.0885506279
 Zr        32.6495246432       18.8358006294        8.0689210914
  H        29.1792030443       16.4913845987        3.4758906623
  H        29.6607570952       18.1785045693        3.6401844647
  H        32.5711956529       16.3630783802        1.9100031849
  H        30.7766203081       15.0976893072        0.6226255288
