     574
 i =      159, E =     -4778.8391151393
  C        11.8587228699       14.0535044481        5.7415736434
  C        12.4562203417       12.8904895784        5.0234294136
  C        11.7046622067       12.1718429198        4.0814365391
  C        12.2810553812       11.1096849688        3.3890329407
  C        13.6215196225       10.7396216422        3.6170386278
  C        14.3545037045       11.4428507847        4.5909054682
  C        13.7816029798       12.5077837759        5.2824766698
  C        14.2611104129        9.6490422208        2.8435735226
  C        14.2564357965        9.6570021336        1.4218658349
  C        13.7432344033       10.7590981559        0.6679392204
  C        49.1267583016       21.2332267917        5.8797481506
  C        48.5499756193       22.4011103893        5.1526067370
  C        49.2999800517       23.0684083954        4.1715745498
  C        48.7330590225       24.1075716982        3.4384051721
  C        47.4025090733       24.5091791192        3.6670234015
  C        46.6715885508       23.8603537858        4.6805868563
  C        47.2340239463       22.8154102816        5.4098950080
  C        46.7723474454       25.5869584863        2.8697928007
  C        46.7611296188       25.5572619510        1.4480333047
  C        47.2609707858       24.4421262315        0.7045389730
  C        14.8603724274        8.5706785843        0.7085717508
  C        14.8920047152        8.5971199273        3.5201789312
  C        49.1129494853       21.2034111378       10.1453226094
  C        48.5275094524       22.3647025550       10.8725369972
  C        49.2667509832       23.0255031170       11.8653882208
  C        48.6904017875       24.0600530620       12.5968377174
  C        47.3599284984       24.4566820090       12.3586982637
  C        46.6394899441       23.8116878861       11.3352510679
  C        47.2130603606       22.7757708959       10.6034849200
  C        46.7215004892       25.5316898531       13.1496996342
  C        46.7332644808       25.5280698795       14.5714033513
  C        47.2485900102       24.4287993819       15.3277771375
  C        40.6216476222       17.0953654008       15.3092230985
  C        40.6338945812       17.1038660913       12.4994216138
  C        11.8829345653       14.0865254082       10.2853689353
  C        12.4722049755       12.9106399837       10.9894877864
  C        11.7148426840       12.1777897866       11.9160057474
  C        12.2814159036       11.0953672535       12.5844788692
  C        13.6200643115       10.7212457470       12.3522530290
  C        14.3578025956       11.4363192525       11.3908887060
  C        13.7923689710       12.5174401947       10.7181318037
  C        14.2537312547        9.6246026697       13.1227410159
  C        14.2524987890        9.6446101651       14.5445884456
  C        13.7426891935       10.7535788906       15.2916812425
  C        22.5096432770        3.2456004056        5.7526662765
  C        23.2162261710        4.3554919557        5.0528356525
  C        24.2126470673        4.0857924609        4.1031864644
  C        24.8291731783        5.1324815638        3.4222784853
  C        24.4645259011        6.4709426586        3.6703705759
  C        23.4967380190        6.7320379186        4.6572794680
  C        22.8759380024        5.6875207128        5.3367167413
  C        25.0585388063        7.5842304211        2.8958339333
  C        25.0339403838        7.5756811009        1.4743991395
  C        24.3379618720        6.5721162395        0.7281475207
  C        38.2983186086       31.9273164817        5.8514442600
  C        37.5572449566       30.8380747757        5.1492155309
  C        36.5921553145       31.1447288293        4.1773391107
  C        35.9625010746       30.1268537150        3.4657165568
  C        36.2822896663       28.7753948531        3.7023957621
  C        37.2167584224       28.4761208551        4.7119601320
  C        37.8503960049       29.4930354773        5.4229528198
  C        35.6737629078       27.6867632150        2.9020002885
  C        35.7172646356       27.7010949387        1.4801482632
  C        36.4299057112       28.7026789153        0.7479126849
  C        25.6533853073        8.6475968646        0.7546108339
  C        25.6436399358        8.6657427835        3.5670507755
  C        38.3307743415       31.9614801938       10.1594907190
  C        37.6143221394       30.8882436627       10.9083461863
  C        36.6823428589       31.1975002954       11.9109626359
  C        36.0733170438       30.1800618582       12.6434984765
  C        36.3816870476       28.8270513068       12.3974051408
  C        37.2942965727       28.5276114486       11.3672056358
  C        37.9051000617       29.5416043740       10.6359054241
  C        35.7685179425       27.7279177158       13.1789255736
  C        35.7656631068       27.7222350479       14.6014034323
  C        36.4516108076       28.7136217542       15.3711884594
  C        46.1353447215       26.6207475201       15.2815529584
  C        46.0875828085       26.5800779779       12.4736621769
  C        22.4599669113        3.2569377702       10.2588097824
  C        23.1500655637        4.3676517326       10.9826949710
  C        24.1471042819        4.0859536584       11.9302745734
  C        24.7699213399        5.1191631672       12.6267197278
  C        24.4166643229        6.4643446334       12.3981516627
  C        23.4431368794        6.7390574840       11.4188866694
  C        22.8152383259        5.7062533542       10.7234205385
  C        25.0415238352        7.5662340586       13.1725701080
  C        25.0258308879        7.5655637940       14.5953628436
  C        24.3311635216        6.5690979030       15.3513258340
  C        26.6346310003       17.8639973736        5.7404135281
  C        25.3326953940       17.9277674631        5.0108528101
  C        25.0788886928       18.9282404938        4.0591760129
  C        23.8581050471       18.9656363076        3.3866263377
  C        22.8577445071       18.0047842033        3.6411812943
  C        23.1108785912       17.0260048050        4.6206299967
  C        24.3302511356       16.9851921004        5.2934000851
  C        21.5803049306       17.9988839324        2.8847911167
  C        21.5778843231       17.9783918224        1.4625332945
  C        22.7822077271       17.8538602442        0.7000422042
  C        34.4380903033       17.1955604035        5.9198176302
  C        35.7292061461       17.1473613656        5.1727014618
  C        35.9175077751       16.1958732262        4.1577570744
  C        37.0978842807       16.1804716686        3.4197035215
  C        38.1210223551       17.1149738071        3.6748908744
  C        37.9330874005       18.0470109057        4.7136932484
  C        36.7507139093       18.0680822558        5.4499455258
  C        39.3744601438       17.1208881897        2.8869080802
  C        39.3683923918       17.1314830084        1.4647456842
  C        38.1614863552       17.2590158329        0.7075771024
  C        20.3297327577       17.9938505271        0.7574926062
  C        20.3571815975       17.9962124688        3.5710161340
  C        34.4424699838       17.2359289180       10.1896359573
  C        35.7440704689       17.1349205197       10.9098242039
  C        35.9447912147       16.1640133280       11.9022824257
  C        37.1353728099       16.1351100180       12.6243889636
  C        38.1539464544       17.0755348237       12.3737848773
  C        37.9594283653       18.0181374144       11.3466376376
  C        36.7682047260       18.0527215196       10.6282927827
  C        39.4033525809       17.0938226716       13.1664254585
  C        39.3831441868       17.1170582552       14.5877191855
  C        38.1679829101       17.2497341832       15.3309252527
  C        35.1291975661       26.6433134449       15.3006456459
  C        35.1833798767       26.6568199908       12.4912659040
  C        26.5693236789       17.8324095665       10.3224496335
  C        25.2519711146       17.8856205171       11.0227388092
  C        24.9810105055       18.9103454985       11.9419821267
  C        23.7623308863       18.9445454948       12.6136428706
  C        22.7855634117       17.9541139748       12.3893339368
  C        23.0498567033       16.9542786922       11.4359984644
  C        24.2694704029       16.9181555874       10.7623025902
  C        21.5225653358       17.9446472221       13.1638104584
  C        21.5479911166       17.9501575708       14.5850235810
  C        22.7682666661       17.8413563174       15.3241354183
  C        14.0451063298       17.8308300302       10.2869178656
  C        15.3489361251       17.8940870530       11.0106807045
  C        15.6042666275       18.9087125594       11.9461972027
  C        16.8129023448       18.9382565601       12.6384756023
  C        17.7986558707       17.9558003482       12.4166539535
  C        17.5479226612       16.9644898652       11.4493777886
  C        16.3387991327       16.9308029438       10.7581754256
  C        19.0675326360       17.9493908471       13.1841587449
  C        19.0672578390       17.9603745107       14.6064074898
  C        17.8613962466       17.8663202329       15.3702190308
  C        46.8030453871       17.2162307657       10.1570284333
  C        45.5102785722       17.1465029678       10.8979702280
  C        45.3058823009       16.1634309996       11.8787461939
  C        44.1222871470       16.1362165105       12.6116213504
  C        43.1123890863       17.0919418324       12.3862900477
  C        43.3134415007       18.0537825118       11.3776895488
  C        44.4979222251       18.0849465047       10.6455935286
  C        41.8592165741       17.0973053535       13.1760052090
  C        41.8672817922       17.1033229967       14.5982219142
  C        43.0772959321       17.2005465046       15.3549214040
  C        20.3147102964       17.9786266899       15.3125136167
  C        20.2900116439       17.9241394688       12.4995539194
  C        46.7845515195       17.2319638412        5.8866555676
  C        45.4826001356       17.1270058282        5.1674161548
  C        45.2645865131       16.1274591220        4.2068207408
  C        44.0771777031       16.0992431197        3.4791613774
  C        43.0771978318       17.0677700268        3.6939604643
  C        43.2861992176       18.0379941250        4.6921207242
  C        44.4745041067       18.0723184365        5.4152861246
  C        41.8297850786       17.0877558143        2.8975056908
  C        41.8523760555       17.0975421692        1.4760753509
  C        43.0702766621       17.1947192816        0.7319927945
  C        46.1532550326       26.6372385352        0.7263115620
  C        46.1624653267       26.6560972129        3.5359535990
  C        14.0472228984       17.8352273978        5.7091382168
  C        15.3695664829       17.9206278602        5.0194949362
  C        15.6375414523       18.9464521181        4.1002689270
  C        16.8657185857       18.9975891299        3.4441687727
  C        17.8554030837       18.0220148651        3.6801719429
  C        17.5942244915       17.0247185949        4.6378129751
  C        16.3679902953       16.9733861021        5.2980465187
  C        19.1223376916       18.0104679654        2.9077670535
  C        19.0959586434       17.9905860614        1.4856144907
  C        17.8751976507       17.8800868819        0.7465579003
  C        28.8093558743       14.0946226648       10.3922810468
  C        28.1921855217       12.9229599794       11.0795473130
  C        28.9082877703       12.1824260493       12.0315230517
  C        28.3022378875       11.1121300874       12.6847701604
  C        26.9662267352       10.7573298767       12.4088783661
  C        26.2724170291       11.4768450927       11.4195137208
  C        26.8757584156       12.5481376198       10.7658296024
  C        26.2908293599        9.6812062330       13.1701892052
  C        26.2679603626        9.7141955608       14.5911667958
  C        26.7643498415       10.8311249498       15.3359395242
  C        32.1809208241       21.2390371425       10.1446107133
  C        32.7773574312       22.4043036741       10.8646363405
  C        32.0289381051       23.0846989839       11.8376161886
  C        32.6000902618       24.1241510659       12.5656681642
  C        33.9356794847       24.5118374484       12.3426395416
  C        34.6668215465       23.8498967812       11.3382108120
  C        34.0979419658       22.8049804855       10.6118846284
  C        34.5633476887       25.5866563342       13.1458559714
  C        34.5454987083       25.5584284196       14.5675977409
  C        34.0346851203       24.4414854263       15.3014671903
  C        25.6557596994        8.6376803149       15.3098156708
  C        25.6598423214        8.6270691310       12.4965842501
  C        32.0824400333       21.1957659720        5.8699868203
  C        32.6498885757       22.3563631355        5.1213852312
  C        31.9159814300       23.0054578440        4.1155844892
  C        32.4899976228       24.0452484325        3.3850075806
  C        33.8101165791       24.4677709375        3.6423029749
  C        34.5238583724       23.8315685727        4.6760904499
  C        33.9565507122       22.7874693789        5.4007205472
  C        34.4517236068       25.5550364516        2.8660593860
  C        34.4865452670       25.5430866954        1.4444205415
  C        34.0055270816       24.4352227748        0.6778881715
  C        40.6137637265       17.0976673680        0.7542442201
  C        40.5996859630       17.1151503866        3.5641251340
  C        28.7037831348       14.0934452050        5.8213615327
  C        28.0786117638       12.9564505062        5.0851455134
  C        28.8157761562       12.2440633402        4.1261482525
  C        28.2287234919       11.1935272369        3.4260404484
  C        26.8894765349       10.8243694387        3.6624119927
  C        26.1686901737       11.5228755186        4.6493777316
  C        26.7529945574       12.5776387438        5.3489866802
  C        26.2500164878        9.7314882526        2.8897567606
  C        26.2483405666        9.7402112778        1.4675786620
  C        26.7523139644       10.8455786146        0.7122208080
  C        18.1353698515        3.1809991496       10.3171962102
  C        17.4061962402        4.2782202184       11.0159063182
  C        16.3901501946        3.9999440057       11.9430925608
  C        15.7424191034        5.0399733641       12.6065023388
  C        16.0947101192        6.3836404020       12.3670874722
  C        17.0845167461        6.6531026612       11.4037555905
  C        17.7336253513        5.6157070638       10.7388048509
  C        15.4703204514        7.4913577655       13.1300668496
  C        15.4856012544        7.4906854289       14.5517737956
  C        16.1872564201        6.4971227652       15.3049180168
  C        42.9458256590       31.8595856817       10.0728660089
  C        43.6461492270       30.7718710798       10.8168243856
  C        44.5915584228       31.0932027120       11.8030085810
  C        45.1972776926       30.0876474911       12.5506533323
  C        44.8709047599       28.7345740558       12.3357564920
  C        43.9452459676       28.4202277283       11.3223820990
  C        43.3364406709       29.4253740492       10.5743372576
  C        45.4884716858       27.6552612345       13.1389401967
  C        45.4927242450       27.6809309300       14.5606368548
  C        44.8058091375       28.6890712768       15.3072922290
  C        14.8566212226        8.5631656781       15.2641395695
  C        14.8749718820        8.5630634934       12.4514636102
  C        42.9465352213       31.9617467419        5.8089661657
  C        43.6919045525       30.8855983010        5.0956315555
  C        44.6563655092       31.1915285634        4.1232035842
  C        45.2779359535       30.1719355220        3.4055192129
  C        44.9542555721       28.8215995651        3.6432079967
  C        44.0210135671       28.5239287992        4.6542189876
  C        43.3927057720       29.5406868662        5.3663738058
  C        45.5632673170       27.7241868821        2.8579462683
  C        45.5333982603       27.7174359073        1.4366453265
  C        44.8271885759       28.7077404251        0.6836844120
  C        35.1017559257       26.6344660425        0.7458861090
  C        35.0572090289       26.6136062447        3.5560611791
  C        18.1486733216        3.2470373045        5.7065275275
  C        17.4302062139        4.3438674965        4.9971205517
  C        16.4147484326        4.0526892806        4.0737983961
  C        15.7664665081        5.0833659019        3.3984493996
  C        16.1214892190        6.4285477972        3.6209165686
  C        17.1132439857        6.7118608804        4.5777959653
  C        17.7608780251        5.6828931524        5.2575195143
  C        15.4908728098        7.5242455916        2.8485494329
  C        15.4967469023        7.5076454364        1.4274208493
  C        16.1935215992        6.5059493705        0.6807299557
  H        10.6726180337       12.4661429905        3.9041993092
  H        11.6948349393       10.5514078426        2.6622817293
  H        15.3914246905       11.1680124762        4.7729100991
  H        14.3509599106       13.0707402154        6.0182015643
  H        13.3762481747       11.6312413483        1.2012352870
  H        50.3226858664       22.7483698120        3.9868312827
  H        49.3195104843       24.6228115398        2.6807841473
  H        45.6420888357       24.1611049086        4.8637450442
  H        46.6630117055       22.2901644044        6.1719869416
  H        47.6293813594       23.5756916426        1.2462218916
  H        14.8723944032        8.5883460906        4.6084857054
  H        50.2868398989       22.7027508692       12.0602245796
  H        49.2687840095       24.5755792615       13.3602996930
  H        45.6100234440       24.1087811588       11.1462941763
  H        46.6521820024       22.2534954788        9.8320375609
  H        47.6072358854       23.5516251734       14.7968773772
  H        40.6384060702       17.0644878424       11.4117881850
  H        48.6870344501       14.0949509573        7.8000677089
  H        10.6815024503       12.4671334973       12.0937208876
  H        11.6897089190       10.5252505758       13.2974686996
  H        15.3930711630       11.1580760745       11.2045663621
  H        14.3645507614       13.0864012342        9.9891583684
  H        13.3758567232       11.6222020725       14.7530653118
  H        47.9301634361       14.2183330238        9.7107411219
  H        47.7798716930       14.3730632814        6.4951642035
  H        49.0826989304       18.5518112041       10.8670519927
  H        10.4159437167       14.1343496774        7.9986624973
  H        24.4818355795        3.0499253232        3.9088507855
  H        25.6021909334        4.9234306666        2.6859705672
  H        23.2078641327        7.7621103104        4.8555240040
  H        22.1063631011        5.8796567280        6.0802369020
  H        23.7774911890        5.8146600080        1.2682542032
  H        36.3602221811       32.1888605720        3.9809365652
  H        35.2153940689       30.3704466724        2.7134648161
  H        37.4725670678       27.4360154496        4.9034810006
  H        38.5973734494       29.2676875077        6.1805366969
  H        36.9900336028       29.4530567352        1.2981621495
  H        25.6758266513        8.6505946341        4.6549921351
  H        36.4547337680       32.2417417175       12.1129892499
  H        35.3439430782       30.4265536935       13.4119533674
  H        37.5459724637       27.4874964772       11.1707521229
  H        38.6307096942       29.3145292791        9.8586330155
  H        37.0294361653       29.4721454009       14.8508239353
  H        46.1089791526       26.5874558587       11.3856251681
  H        44.6684072831       35.1163712886        7.8139040512
  H        24.4250199552        3.0486444563       12.1028920731
  H        25.5465115939        4.8930832718       13.3543014282
  H        23.1586138208        7.7726786487       11.2326628989
  H        22.0477028848        5.9163869125        9.9821417955
  H        23.7646322621        5.8100780367       14.8196915593
  H        44.9544112085       34.3909743629        9.6955917039
  H        44.9021236203       34.2070629809        6.4905506105
  H        40.6667305765       33.2093807372       10.8532264312
  H        23.1499305820        1.9586145957        8.0053059349
  H        25.8441586674       19.6778941852        3.8688794662
  H        23.6634474787       19.7498751772        2.6580927996
  H        22.3514830005       16.2738219407        4.8244548214
  H        24.5349387873       16.2180828646        6.0365073431
  H        23.7236261837       17.7333308766        1.2275781480
  H        35.1211107399       15.4823517605        3.9571653621
  H        37.2433619693       15.4335575485        2.6423569749
  H        38.7139487495       18.7774595873        4.9152051940
  H        36.5903457992       18.8020598627        6.2363634075
  H        37.2239439695       17.3959958149        1.2384716146
  H        20.3668833117       18.0320208480        4.6590398235
  H        35.1500886852       15.4503788139       12.1072200503
  H        37.2883776817       15.3798481575       13.3921485949
  H        38.7388790711       18.7505395910       11.1470637700
  H        36.5975412135       18.8001630855        9.8573551667
  H        37.2352884065       17.3785570050       14.7892413726
  H        35.1638245958       26.6831899904       11.4034002667
  H        28.5112683290       21.0794715614        7.9597918198
  H        25.7386533875       19.6717711071       12.1124195006
  H        23.5520663102       19.7424266444       13.3226707507
  H        22.3036415188       16.1827399565       11.2575331671
  H        24.4901446621       16.1342978020       10.0416483152
  H        23.6984630420       17.7135139721       14.7784868173
  H        29.0076843530       21.7202505705        9.7577021330
  H        29.1398309470       21.7475748342        6.6037629883
  H        32.0823797238       18.5590563118       10.9867296276
  H        27.4054524320       19.0796469827        8.0753378009
  H        14.8450415118       19.6690995284       12.1147706911
  H        17.0089138093       19.7310554127       13.3571974686
  H        18.2996427756       16.1983556500       11.2708413991
  H        16.1322849719       16.1532670832       10.0265552389
  H        16.9179622915       17.7491295414       14.8449230694
  H        46.0919794735       15.4343386682       12.0604804839
  H        43.9656175586       15.3665688056       13.3642372825
  H        42.5418428053       18.7997177481       11.1986440712
  H        44.6687396004       18.8423712503        9.8841127935
  H        44.0184239425       17.3108838141       14.8238496975
  H        20.2815805930       17.9412120016       11.4111869195
  H        46.0411791742       15.3862668839        4.0321875037
  H        43.9116386097       15.3225927642        2.7356368589
  H        42.5199037137       18.7907857552        4.8649838739
  H        44.6556299670       18.8402543803        6.1633405096
  H        44.0061731965       17.2993343142        1.2732334614
  H        46.1994527938       26.6826854209        4.6233937097
  H        52.7409471408       21.0626063662        8.1946154615
  H        14.8728964872       19.6979669743        3.9163305967
  H        17.0705242454       19.7966564278        2.7348371005
  H        18.3486083800       16.2641674419        4.8287058165
  H        16.1531291853       16.1901743351        6.0211321381
  H        16.9423319356       17.7734666338        1.2919604739
  H        52.3219255569       21.6731559897        6.2945808344
  H        52.0130377368       21.7020067651        9.4955690859
  H        49.0671448819       18.6073925211        5.2039081721
  H        13.2470225844       19.0170117708        7.9770411953
  H        29.9377248508       12.4603814780       12.2459412936
  H        28.8587708899       10.5380484529       13.4224414777
  H        25.2403146675       11.2125048119       11.1986334299
  H        26.3370265827       13.1255651715       10.0186383714
  H        27.1294435602       11.6986524367       14.7944543442
  H        31.0033122318       22.7726472051       12.0192614644
  H        32.0140190088       24.6502589867       13.3160472759
  H        35.7007576029       24.1385095872       11.1602096234
  H        34.6689656413       22.2683942119        9.8576364115
  H        33.6903545926       23.5695515716       14.7525894818
  H        25.6972739075        8.6039176243       11.4088724743
  H        30.8959194300       22.6821979438        3.9167688079
  H        31.9131829951       24.5499827237        2.6128720604
  H        35.5454145480       24.1447235755        4.8816124015
  H        34.5151831652       22.2758092215        6.1808462351
  H        33.6398486168       23.5574213252        1.2026062082
  H        40.5945925391       17.0783059062        4.6518353891
  H        32.5188636946       14.1438061008        8.2559601558
  H        29.8516300320       12.5237440496        3.9484023327
  H        28.8078878933       10.6392638955        2.6906909965
  H        25.1325846562       11.2501416523        4.8392095782
  H        26.1924380740       13.1321850416        6.0979569598
  H        27.1060686420       11.7248543280        1.2431746691
  H        33.2890422682       14.1663979694        6.4238974439
  H        33.4067289770       14.4006062050        9.6085922123
  H        32.1344596628       18.4963584078        5.1619819716
  H        30.2213899909       14.1889743953        8.0879342724
  H        16.1178113020        2.9634722622       12.1292570084
  H        14.9527020659        4.8207021589       13.3219008932
  H        17.3673527709        7.6859300435       11.2109814393
  H        18.5160613182        5.8183098777       10.0113737301
  H        16.7538901977        5.7398533746       14.7713962488
  H        44.8278320528       32.1402850735       11.9772187170
  H        45.9371037083       30.3414326718       13.3066268863
  H        43.6826874344       27.3781417288       11.1521519237
  H        42.6000581371       29.1900267999        9.8094500304
  H        44.2305707671       29.4369402352       14.7690082275
  H        14.8512312329        8.5462523301       11.3632441624
  H        44.8998391499       32.2342099033        3.9316553639
  H        46.0247429133       30.4132085509        2.6521969190
  H        43.7642249202       27.4841836979        4.8459348212
  H        42.6463953779       29.3178703283        6.1249971810
  H        44.2688675023       29.4707632238        1.2182677972
  H        35.0046664084       26.6264113034        4.6431527409
  H        36.6053189188       35.1340000868        8.1806532998
  H        16.1434030832        3.0131465524        3.9042979070
  H        14.9739416096        4.8566180142        2.6885560251
  H        17.3971657767        7.7472720856        4.7543456400
  H        18.5440845855        5.8932960510        5.9819408908
  H        16.7650741562        5.7558072612        1.2191789387
  H        36.2789434314       34.4821795526        6.2730505354
  H        36.3811750501       34.2089467567        9.4994367493
  H        40.5796802615       33.2021271170        5.1537130370
  H        17.4709606440        1.9472155337        7.9740786559
  H        29.0605554045       19.3423601121       12.4899905782
  H        28.9951661201       18.3459468583        3.7548859692
  H        30.5588871168       15.4539095554        3.9084982729
  H        31.3133624529       15.6724145577       12.5851020327
  H        28.4826606382       17.9204661524       14.8394525987
  H        29.6777259095       15.7457836961       14.7421540635
  H        31.2042512400       20.5736817299        1.7825109507
  H        33.1202814598       17.2573865634        1.6747649624
  H        27.4665788350       17.0719472057        2.0910976560
  H        31.9158228575       18.5730094654       14.5091200198
  H        18.8533168863        0.8688805737       12.3351799025
  H        40.5279954827       35.2286986621        3.9520173036
  H        42.3249813610       34.4198350407        3.5900623881
  H        22.0875212096        0.6921388206       12.3514433901
  H        11.5968621139       18.7128766721       12.3822867178
  H        52.2647932404       18.4309281388        3.6773431722
  H        49.2552582317       16.4765022197        3.5843588548
  H        10.1501474352       15.7982654855       12.2929988977
  H        50.8498119845       17.6923381787        3.9541998444
  H        10.0460139986       17.3946257317       12.0520185112
  H        20.2146665881        0.0021471986       12.0419140363
  H        39.1837099664       36.1243010326        3.6865907250
 Ni        31.1111862731       17.5330643657        2.9147293363
 Ni        31.4169031261       16.7590066035        0.0074641952
 Ni        30.0540320821       19.2083047090        0.0023184425
 Ni        30.1795424312       17.5202401584       13.2396721447
  O        10.6499984940       14.3651700302        5.4858663066
  O        12.6132589402       14.6576129850        6.5838707023
  O        49.1478629563       16.8459710415        7.9897373026
  O        50.3502163599       20.9358854174        5.6480543231
  O        48.3485226425       20.5932577686        6.6659172590
  O        11.0514338928       17.0538402363        6.5006512278
  O        50.3207942453       20.8817268804       10.4068460284
  O        48.3466613611       20.5866674722        9.3270492256
  O        49.5435878446       18.2483766640       10.0682368136
  O        12.3589323395       18.6244528620        7.9994931793
  O        48.6932189405       14.1486078394        6.7513035494
  O         8.2099085458       14.2103821142        9.3224847662
  O        10.7353626747       14.5067737944       10.6642579955
  O        12.5718353634       14.5829038219        9.3284178966
  O        22.8446381070        2.0448040983        5.4869583955
  O        21.6040816253        3.5915030013        6.5912120156
  O        42.0581160843       34.1374357343        7.9789114607
  O        37.9810690679       33.1357915438        5.5721887262
  O        39.2170824161       31.5746485955        6.6656991324
  O        20.3084083228        1.0394839649        6.5020860995
  O        38.0244672037       33.1852029635       10.4156109457
  O        39.2187566550       31.5832897297        9.3270514326
  O        40.6522304901       33.7692974524       10.0600831115
  O        18.2555464577        1.3759120823        7.9968145238
  O        44.6221489498       35.1006349753        6.7587506283
  O        24.2054049359        0.0000438437        9.3207657744
  O        22.7530128764        2.0587179117       10.5843195266
  O        21.6242812785        3.5959616179        9.3425430645
  O        27.5592758137       18.6946997335        5.4043544851
  O        26.7317625430       16.9948150562        6.6638415805
  O        30.6637576055       19.3965992837        8.0502282899
  O        33.5853812440       16.2797719292        5.6673969250
  O        34.2749119544       18.1704249220        6.7374168721
  O        29.5725768220       17.0655773346        6.5811357777
  O        33.5559858214       16.3394971406       10.4184919810
  O        34.3021907726       18.2392073939        9.4098753004
  O        31.6505588815       18.3174672544       10.1505799193
  O        30.3201503866       15.1553318620        8.0872851930
  O        28.5524129487       21.0275757296        6.8937600838
  O        28.5142050285       20.9570070102        9.4117890425
  O        27.4572555582       18.6813296743       10.6564857714
  O        26.6933341171       16.9303615880        9.4135238993
  O        13.1467324884       18.6937669469       10.5865624475
  O        13.9191202990       16.9163986709        9.4050311164
  O        50.5957444100       19.3501563604        8.0200749033
  O        47.6832881696       16.3268458182       10.4171412040
  O        46.9507023984       18.1755533917        9.3253603226
  O        11.0697052584       17.0154419511        9.4894634384
  O        47.6754803211       16.3358713689        5.6527112323
  O        46.9258018748       18.2357672930        6.6635663308
  O        49.5684182699       18.3176564818        5.9821737326
  O        10.3186626591       15.1002158359        7.9970528441
  O        52.6707094475       21.0279285231        9.2418019727
  O        12.1467998077       20.8911887304        6.6732278766
  O        13.1076134739       18.6142541056        5.3255818315
  O        13.9586130112       16.9880147466        6.6635692058
  O        29.9943663047       14.4443113950       10.7309486787
  O        28.0901421086       14.6555254404        9.4933789355
  O        32.1366051033       16.8585831737        8.0883417193
  O        30.9656385566       20.9518191426       10.4082890811
  O        32.9467532744       20.6007701564        9.3368593734
  O        29.5661861824       17.0771157726        9.5736285119
  O        30.8539748619       20.8797894682        5.6470911960
  O        32.8700032225       20.5871996142        6.6630886252
  O        31.6839023821       18.2471564365        5.9887581717
  O        28.2903682224       18.6794102778        8.0680918732
  O        32.4911381359       14.2139611051        9.3316021272
  O        32.4072334939       14.2054561146        6.8296207049
  O        29.8945460023       14.4282534380        5.5019770671
  O        28.0035796950       14.6486860427        6.7423294386
  O        17.8892092626        1.9665689370       10.6628530123
  O        18.9561785355        3.5271230017        9.4080460961
  O        39.1685251883       34.1385913371        7.9970909995
  O        43.2801425103       33.0589605500       10.3316932368
  O        42.0343732946       31.5064762220        9.2416048923
  O        20.3176500468        1.0366899352        9.4803483811
  O        43.2760829158       33.1826747013        5.5749020688
  O        42.0052773572       31.5841506483        6.5829696705
  O        40.5789150711       33.7748846328        5.9357733600
  O        22.3673790921        1.3845824117        7.9979448807
  O        36.6727697845       35.0997178963        9.2333088571
  O        16.4456840913        0.0641145324        6.6682126145
  O        17.9365351745        2.0433465664        5.3263834597
  O        18.9188594177        3.5931202034        6.6659932853
  O        29.8714014155       18.7539787017        3.9071946742
  O        29.7872539299       18.9100485479       12.0011274342
  O        31.2253762936       16.1166601487        4.1753293313
  O        31.2614511084       16.4901621331       12.0535859946
  O        32.2648126887       16.7916216054        1.6487936312
  O        28.1759328919       16.4153019305        1.9956536849
  O        30.5361197581       16.1285143644       14.4792716576
  O        31.8487679124       18.5469759559       15.4900662661
  O        30.3334113175       20.1510645271        1.6747753090
  O        29.1502209333       18.5383183862       14.4853824918
  O        39.4566906207       35.2435448863        4.0019752187
  O        19.1411943452        0.0043522768       11.9905352078
  O        41.9694839895       35.1727912718        4.0872629789
  O        21.6911524981       -0.0693441366       11.8957990393
  O        51.3649898043       18.6142192562        4.0053974273
  O        10.7509770322       18.7472488779       11.9049310728
  O        50.0796641240       16.4127966330        4.0917576752
  O         9.5244128748       16.4831087104       11.9912063793
 Zr         9.2964218197       16.0526918077        6.1823957892
 Zr        49.8362932337       16.0066708748        9.7465520657
 Zr        22.0736169146        0.0306303220        6.1888610086
 Zr        42.4613053297       35.1541047825        9.8010437925
 Zr        29.6256197667       19.0790538366        6.2770759959
 Zr        29.5804139182       19.1745558049        9.8607967435
 Zr        11.0372285338       19.0519943787        9.8274960177
 Zr        11.0435873900       19.1547187714        6.2509410780
 Zr        31.3411750772       16.1072191101        9.8870703314
 Zr        31.3986583290       15.9899940923        6.3003577679
 Zr        18.6014262628       -0.0010631701        9.7633329937
 Zr        18.5069104348       -0.0075285340        6.2136538950
 Zr        12.3019983690       16.3235485558        7.9897910163
 Zr        48.6156692454       18.8327723107        8.0101837745
 Zr        20.3154389793        2.4739546111        7.9908644036
 Zr        40.6437652425       32.6874159532        7.9778753008
 Zr        28.3386302006       16.3528064029        8.0860804752
 Zr        32.6364366136       18.8285470728        8.0570860834
  H        28.9683633237       16.9337278756        1.7256076990
  H        30.1195769136       19.6909353323        2.5722997485
