     571
 i =       76, E =     -4761.5384633150
  C        11.8587898257       14.0536915596        5.7415170915
  C        12.4563411279       12.8906899432        5.0233304442
  C        11.7046568736       12.1716966561        4.0817009519
  C        12.2810746716       11.1095083015        3.3893511056
  C        13.6216752461       10.7397813791        3.6170742214
  C        14.3548021637       11.4433853525        4.5905473541
  C        13.7819006120       12.5083823174        5.2820341679
  C        14.2612633826        9.6491476721        2.8436493238
  C        14.2566735940        9.6571186372        1.4219411241
  C        13.7435872268       10.7592929320        0.6680506907
  C        49.1269744152       21.2330585645        5.8795974213
  C        48.5503080631       22.4010988477        5.1525641941
  C        49.3003745495       23.0684780896        4.1716311682
  C        48.7334837988       24.1076924617        3.4384885322
  C        47.4029434082       24.5093588615        3.6671026556
  C        46.6719563260       23.8604265347        4.6805592822
  C        47.2343659851       22.8154508211        5.4098530175
  C        46.7726706454       25.5870775359        2.8698496295
  C        46.7615964414       25.5574645556        1.4480792627
  C        47.2615195056       24.4423727427        0.7045706985
  C        14.8606395205        8.5707992639        0.7086590840
  C        14.8920323653        8.5971776180        3.5202800068
  C        49.1131316905       21.2033796346       10.1453210277
  C        48.5277222540       22.3647642006       10.8724667234
  C        49.2669893436       23.0255907810       11.8652795486
  C        48.6906446535       24.0601288772       12.5967632687
  C        47.3601665462       24.4567837583       12.3586745495
  C        46.6396979653       23.8117438946       11.3352667816
  C        47.2132658597       22.7758530727       10.6034541718
  C        46.7217241304       25.5317693933       13.1497172872
  C        46.7335881014       25.5281949628       14.5714285058
  C        47.2491273520       24.4290233485       15.3278064708
  C        40.6259832454       17.1123624283       15.3274990820
  C        40.6510437004       17.1544183658       12.5180443844
  C        11.8830698322       14.0867318298       10.2853695054
  C        12.4725174947       12.9109557780       10.9896450370
  C        11.7151447574       12.1778579817       11.9159521163
  C        12.2818145762       11.0954641536       12.5844104697
  C        13.6205909915       10.7216651365       12.3524360542
  C        14.3583979720       11.4370838364       11.3913899473
  C        13.7928766624       12.5181829792       10.7186473128
  C        14.2542412828        9.6249214481       13.1228405791
  C        14.2529724406        9.6448755505       14.5446895282
  C        13.7431413985       10.7538278875       15.2917925129
  C        22.5109824135        3.2465511541        5.7521604979
  C        23.2205795066        4.3560705186        5.0520038719
  C        24.2202641564        4.0841210055        4.1062334176
  C        24.8411043491        5.1287401987        3.4255298459
  C        24.4780023093        6.4686084377        3.6689529076
  C        23.5063115019        6.7320876898        4.6517070518
  C        22.8814458058        5.6894263967        5.3312640254
  C        25.0774712477        7.5797688818        2.8936176904
  C        25.0583497824        7.5686170925        1.4715688623
  C        24.3647673541        6.5638380881        0.7246944362
  C        38.2963721171       31.9268511840        5.8523681696
  C        37.5515468449       30.8372431728        5.1540153035
  C        36.5833035483       31.1426744804        4.1846005382
  C        35.9508810272       30.1241927708        3.4759890442
  C        36.2703000535       28.7722462116        3.7120081259
  C        37.2068951361       28.4743448169        4.7203006907
  C        37.8432070815       29.4918117094        5.4285778038
  C        35.6627984775       27.6832324006        2.9101451214
  C        35.7078163287       27.7002944731        1.4875943096
  C        36.4177702688       28.7050375308        0.7576655273
  C        25.6806403043        8.6389948692        0.7512051492
  C        25.6618072511        8.6625057441        3.5639786710
  C        38.3310729766       31.9614937808       10.1605476389
  C        37.6155614232       30.8897561316       10.9114709350
  C        36.6838980371       31.2008654614       11.9140563795
  C        36.0746341297       30.1850244926       12.6485047808
  C        36.3818677042       28.8312888828       12.4044716451
  C        37.2948600473       28.5301827762       11.3748067608
  C        37.9060024397       29.5424651979       10.6415705487
  C        35.7673090179       27.7326180030       13.1852718465
  C        35.7612577017       27.7257981267       14.6082204051
  C        36.4420417471       28.7181839241       15.3806622857
  C        46.1356030515       26.6208409766       15.2815801005
  C        46.0876669051       26.5800856921       12.4736779070
  C        22.4623066032        3.2570759789       10.2583974788
  C        23.1584735566        4.3663482638       10.9805414255
  C        24.1605457393        4.0808945733       11.9217913944
  C        24.7899913845        5.1111547377       12.6170002472
  C        24.4382884609        6.4576471823       12.3940358228
  C        23.4595319292        6.7363146283       11.4210179628
  C        22.8253710892        5.7063383396       10.7264757533
  C        25.0684973128        7.5572449232       13.1684641802
  C        25.0544333334        7.5560688055       14.5915142695
  C        24.3600642113        6.5596492444       15.3477561980
  C        26.6819940250       17.8808105946        5.7293292794
  C        25.3816881113       17.9689584804        4.9992362994
  C        25.1508054853       18.9340778413        4.0063002952
  C        23.9224809762       18.9826964278        3.3458861452
  C        22.8919676418       18.0668068196        3.6475451635
  C        23.1239177417       17.1263295127        4.6694947385
  C        24.3475908513       17.0758792506        5.3319298079
  C        21.6092568831       18.0523219941        2.8974579894
  C        21.5977530887       17.9980868711        1.4752735848
  C        22.7962450649       17.8470733841        0.7082215290
  C        34.4175676557       17.2234175909        5.9122368009
  C        35.7065900371       17.1569503217        5.1705517583
  C        35.8968348427       16.1994294366        4.1607460127
  C        37.0795404360       16.1776897895        3.4265476381
  C        38.1057544438       17.1094728826        3.6820904636
  C        37.9169900754       18.0448555204        4.7181852350
  C        36.7319925218       18.0740638349        5.4486680476
  C        39.3625304274       17.1110987528        2.8998631945
  C        39.3622676482       17.1299251028        1.4774817559
  C        38.1593897542       17.2688605113        0.7166459671
  C        20.3455850029       18.0033559092        0.7758886202
  C        20.3868042283       18.0593965009        3.5882383665
  C        34.4704119258       17.2428819841       10.1892761968
  C        35.7698060988       17.1683222363       10.9122973110
  C        35.9762413516       16.1930592940       11.8997065033
  C        37.1635633188       16.1719103903       12.6251568204
  C        38.1724738823       17.1248365093       12.3835695681
  C        37.9714819014       18.0747350380       11.3645922819
  C        36.7822265483       18.1016757827       10.6419064133
  C        39.4183909762       17.1411614491       13.1797099788
  C        39.3910229893       17.1472588381       14.6011996790
  C        38.1726637060       17.2750407942       15.3395242572
  C        35.1273608744       26.6437470585       15.3052608653
  C        35.1838503104       26.6619670731       12.4953259145
  C        26.5636385307       17.8311284627       10.3241435188
  C        25.2479716135       17.8797546807       11.0253659136
  C        24.9849048098       18.8868054424       11.9666804396
  C        23.7669368934       18.9152334906       12.6398215558
  C        22.7820522179       17.9362588723       12.3975754099
  C        23.0392362032       16.9549091644       11.4227873693
  C        24.2577652324       16.9245721856       10.7467505807
  C        21.5211586141       17.9210311323       13.1759959366
  C        21.5526133684       17.9296954046       14.5975644005
  C        22.7746224099       17.8152590977       15.3327209867
  C        14.0448907948       17.8269440209       10.2924890438
  C        15.3448026606       17.8812370785       11.0264243888
  C        15.6007494982       18.8917611405       11.9666159349
  C        16.8073226757       18.9160621389       12.6635713512
  C        17.7925543824       17.9322937766       12.4433469626
  C        17.5393834353       16.9425309616       11.4746359713
  C        16.3326002647       16.9143186673       10.7783376555
  C        19.0647547419       17.9263420972       13.2078100486
  C        19.0719428832       17.9464848864       14.6304404289
  C        17.8700925525       17.8605410426       15.4010769870
  C        46.8053606350       17.2195555606       10.1606867977
  C        45.5174611194       17.1592972381       10.9103194637
  C        45.3142105241       16.1828300933       11.8979238086
  C        44.1345124881       16.1648179095       12.6373334657
  C        43.1272228469       17.1234265601       12.4116476873
  C        43.3284991442       18.0804574934       11.3982480211
  C        44.5088286707       18.1022917354       10.6597114752
  C        41.8735479618       17.1328739786       13.1995712438
  C        41.8750093863       17.1234133495       14.6221540134
  C        43.0813980121       17.2093354596       15.3849956913
  C        20.3229800700       17.9691281995       15.3307320536
  C        20.2847341686       17.8990463785       12.5177807424
  C        46.7822364873       17.2288393261        5.8914451847
  C        45.4751601876       17.1160862564        5.1828298156
  C        45.2557457573       16.1152441595        4.2238762354
  C        44.0653184875       16.0833393405        3.5014511907
  C        43.0632005415       17.0488055123        3.7205521491
  C        43.2719963143       18.0174174693        4.7204156749
  C        44.4637819211       18.0559872619        5.4376557108
  C        41.8177956013       17.0717124436        2.9211667000
  C        41.8465722738       17.0898833523        1.4994046463
  C        43.0678801056       17.1907818838        0.7619844843
  C        46.1534916822       26.6373128374        0.7263456652
  C        46.1627015163       26.6561867559        3.5359951535
  C        14.0532185185       17.8404308111        5.7125161315
  C        15.3824757600       17.9383898957        5.0337565872
  C        15.6503036863       18.9669376994        4.1169550585
  C        16.8826375215       19.0282097117        3.4682603642
  C        17.8798580847       18.0606685187        3.7075378630
  C        17.6194830132       17.0623133676        4.6647275777
  C        16.3889435538       17.0007949072        5.3179392688
  C        19.1476580391       18.0522652688        2.9318198266
  C        19.1149308010       18.0102752957        1.5095604376
  C        17.8910704874       17.8889304088        0.7772082286
  C        28.8088467569       14.0858055962       10.3599586835
  C        28.2002741041       12.9170702094       11.0574793767
  C        28.9215844535       12.1884493736       12.0149049648
  C        28.3226133037       11.1180315659       12.6752044357
  C        26.9891459749       10.7509096177       12.4015494952
  C        26.2898381759       11.4612246213       11.4090524259
  C        26.8853057877       12.5327071175       10.7485951958
  C        26.3191672439        9.6723855397       13.1653490352
  C        26.2972174403        9.7043443327       14.5864816691
  C        26.7924283105       10.8216819917       15.3309448398
  C        32.1767864211       21.2448802048       10.1537015497
  C        32.7734068295       22.4095097442       10.8692232802
  C        32.0305572847       23.0823243233       11.8518858184
  C        32.6034470418       24.1220263616       12.5775227207
  C        33.9352050872       24.5172920421       12.3438318719
  C        34.6598762841       23.8632820243       11.3293500058
  C        34.0896310201       22.8182223314       10.6047995494
  C        34.5648619428       25.5899902394       13.1476646046
  C        34.5493602219       25.5575075574       14.5697287590
  C        34.0499851322       24.4341461430       15.3006721999
  C        25.6849260739        8.6280091609       15.3059026765
  C        25.6872137509        8.6179045607       12.4924933897
  C        32.0878014796       21.1603082556        5.8306004572
  C        32.6479465402       22.3242097900        5.0921941781
  C        31.9287267585       22.9511373335        4.0616975598
  C        32.4992755658       24.0031633599        3.3472252618
  C        33.8024281444       24.4573261724        3.6389103781
  C        34.4993171313       23.8427279782        4.6979737914
  C        33.9351115657       22.7895409701        5.4102201687
  C        34.4456094323       25.5471955410        2.8688056763
  C        34.4874750359       25.5359644458        1.4463293518
  C        34.0212003083       24.4238373258        0.6772763392
  C        40.6111140865       17.0989281509        0.7723546990
  C        40.5849144950       17.0996786357        3.5824455670
  C        28.6893216605       14.1276821734        5.7916644286
  C        28.0769090162       12.9775122586        5.0657015741
  C        28.8167270396       12.2716353851        4.1034515915
  C        28.2392242775       11.2093749659        3.4130664723
  C        26.9055249842       10.8241850174        3.6576864597
  C        26.1833638936       11.5161373049        4.6487906434
  C        26.7590088263       12.5796321145        5.3422168925
  C        26.2715329791        9.7267835828        2.8864986306
  C        26.2741845988        9.7326849200        1.4638828322
  C        26.7783482677       10.8369686625        0.7070038138
  C        18.1353981369        3.1809307546       10.3171627542
  C        17.4061948280        4.2782313468       11.0157785013
  C        16.3904463075        3.9999863133       11.9433049553
  C        15.7427960456        5.0400343083       12.6067768153
  C        16.0947967776        6.3837358081       12.3670735237
  C        17.0841815395        6.6531515817       11.4032767335
  C        17.7331955173        5.6157393362       10.7382531590
  C        15.4705611639        7.4914957335       13.1301225414
  C        15.4858328016        7.4907938411       14.5518404188
  C        16.1873142242        6.4971253684       15.3050119008
  C        42.9457929217       31.8595339745       10.0728300445
  C        43.6460728934       30.7718628905       10.8168664501
  C        44.5915584000       31.0931631129       11.8029971871
  C        45.1972487287       30.0876080863       12.5506685415
  C        44.8708623461       28.7345292701       12.3357868326
  C        43.9450730179       28.4202134500       11.3225215324
  C        43.3362819689       29.4253646739       10.5744640402
  C        45.4884918038       27.6552303613       13.1389663598
  C        45.4927911530       27.6809169714       14.5606662068
  C        44.8057271853       28.6889545098       15.3073258517
  C        14.8569232148        8.5633162286       15.2642191079
  C        14.8753594957        8.5633260725       12.4515476791
  C        42.9464430275       31.9616486607        5.8089666148
  C        43.6917529190       30.8855377458        5.0955673948
  C        44.6563915998       31.1914548116        4.1233002694
  C        45.2779774897       30.1718806172        3.4056100708
  C        44.9542388938       28.8215425276        3.6432289224
  C        44.0207316625       28.5238670191        4.6539885954
  C        43.3923953336       29.5406201256        5.3661325147
  C        45.5633109841       27.7241552599        2.8579653613
  C        45.5335273442       27.7174606193        1.4366625308
  C        44.8271005963       28.7076276373        0.6837206759
  C        35.0978208018       26.6321481924        0.7506765038
  C        35.0469314825       26.6077144364        3.5610399537
  C        18.1486605452        3.2469748651        5.7066537643
  C        17.4301530463        4.3438637661        4.9973429483
  C        16.4149225340        4.0526567154        4.0737743175
  C        15.7666505960        5.0833204869        3.3983954384
  C        16.1213674846        6.4285431776        3.6211138566
  C        17.1127685552        6.7118750330        4.5783707175
  C        17.7603879628        5.6829236465        5.2581357423
  C        15.4908876109        7.5242647145        2.8486773009
  C        15.4968034848        7.5076568195        1.4275406998
  C        16.1935242693        6.5059347392        0.6808274348
  H        10.6724978639       12.4657491898        3.9047168892
  H        11.6947931370       10.5509862989        2.6628339335
  H        15.3918678816       11.1688923376        4.7722443304
  H        14.3514072085       13.0717332486        6.0173437729
  H        13.3765782264       11.6314077417        1.2013853730
  H        50.3230770166       22.7484255299        3.9868696090
  H        49.3200051453       24.6229847450        2.6809539592
  H        45.6424528553       24.1611821744        4.8637137288
  H        46.6633016597       22.2901338337        6.1718600750
  H        47.6301203566       23.5760131622        1.2462465773
  H        14.8723473733        8.5884093682        4.6085865778
  H        50.2871008188       22.7028698070       12.0600678442
  H        49.2690881831       24.5756546630       13.3601831518
  H        45.6102269359       24.1088534786       11.1463386699
  H        46.6523914535       22.2536193867        9.8319722875
  H        47.6078854222       23.5518904514       14.7969102240
  H        40.6595740348       17.1259257046       11.4301205820
  H        48.6870618954       14.0950324916        7.8000083304
  H        10.6816945543       12.4669462042       12.0934600694
  H        11.6901024496       10.5251408562       13.2972318597
  H        15.3937945641       11.1591639438       11.2053081982
  H        14.3650845699       13.0873982767        9.9898864899
  H        13.3764073262       11.6224917084       14.7531704980
  H        47.9301169290       14.2189122247        9.7107326303
  H        47.7801256704       14.3743400970        6.4952186119
  H        49.0839854983       18.5524224080       10.8672961909
  H        10.4161275302       14.1344283128        7.9985668647
  H        24.4891476964        3.0476544267        3.9145889029
  H        25.6167264125        4.9163544409        2.6929003224
  H        23.2171627308        7.7626761210        4.8470063270
  H        22.1093761104        5.8846701399        6.0714762516
  H        23.8038137988        5.8064404844        1.2643694316
  H        36.3510953202       32.1865525613        3.9870646085
  H        35.2020257163       30.3679543175        2.7255110816
  H        37.4630221324       27.4344244247        4.9124795031
  H        38.5918744934       29.2661398771        6.1844225362
  H        36.9743759257       29.4568477577        1.3095191368
  H        25.6896519068        8.6497630483        4.6520982705
  H        36.4564282193       32.2454753992       12.1142635867
  H        35.3451698645       30.4332549901       13.4163097165
  H        37.5462029098       27.4896437376       11.1802199148
  H        38.6314942389       29.3135694998        9.8647106136
  H        37.0182939962       29.4796278030       14.8628269283
  H        46.1089832672       26.5874279628       11.3856376995
  H        44.6681650814       35.1161557009        7.8139857134
  H        24.4371868314        3.0426144189       12.0906273009
  H        25.5702378997        4.8812875914       13.3394962367
  H        23.1756658568        7.7708551321       11.2388422110
  H        22.0541099125        5.9201998160        9.9900741831
  H        23.7949031996        5.7996206607       14.8160693682
  H        44.9536043648       34.3903159711        9.6951649230
  H        44.9013836153       34.2068376779        6.4904763604
  H        40.6662482081       33.2090592281       10.8530581076
  H        23.1504456145        1.9581139398        8.0051074781
  H        25.9430276337       19.6388256583        3.7623737754
  H        23.7499390940       19.7399813461        2.5841433146
  H        22.3442347121       16.4079007310        4.9141690145
  H        24.5311000543       16.3360246755        6.1069761610
  H        23.7402268615       17.7242320231        1.2307632085
  H        35.1036342475       15.4816857080        3.9630889765
  H        37.2262384863       15.4270907007        2.6529289514
  H        38.6998316462       18.7728354901        4.9207182330
  H        36.5722858875       18.8125731437        6.2308394819
  H        37.2200684103       17.4063910133        1.2446156155
  H        20.4008568643       18.1166446571        4.6753712251
  H        35.1871515378       15.4712264775       12.0967194103
  H        37.3229772662       15.4133880690       13.3883202224
  H        38.7436685757       18.8172662864       11.1744382823
  H        36.6058804845       18.8537258722        9.8766642486
  H        37.2434082968       17.4138717037       14.7943404303
  H        35.1643660076       26.6909126985       11.4075154115
  H        28.5139123365       21.0945090792        8.0029637809
  H        25.7484269258       19.6383163464       12.1544786400
  H        23.5641014176       19.7000645495       13.3652841206
  H        22.2882225278       16.1917657162       11.2289643240
  H        24.4713550682       16.1535231820       10.0103545850
  H        23.7012979656       17.6694688519       14.7857497102
  H        29.0080821094       21.7176031212        9.7633116032
  H        29.0729095286       21.7903356938        6.5951646871
  H        32.0530720766       18.5410494722       11.0142078102
  H        27.4031587340       19.0854903600        8.0756922709
  H        14.8443262932       19.6551965405       12.1342608437
  H        17.0027295173       19.7079847809       13.3834443128
  H        18.2887235199       16.1739221329       11.2966182523
  H        16.1272142959       16.1385123585       10.0445041139
  H        16.9239114441       17.7382800516       14.8818380416
  H        46.0977500921       15.4507331216       12.0787572051
  H        43.9778615196       15.3986491012       13.3934534660
  H        42.5598372202       18.8295729062       11.2198391761
  H        44.6795410175       18.8554807773        9.8940408785
  H        44.0252379231       17.3230675490       14.8594270998
  H        20.2709011269       17.9148808202       11.4294214622
  H        46.0345302375       15.3774089537        4.0448289673
  H        43.8997892394       15.3073345971        2.7572439240
  H        42.5039738602       18.7675477659        4.8972249941
  H        44.6456121600       18.8241820274        6.1853015702
  H        44.0014643459       17.2890178656        1.3082679038
  H        46.1995806052       26.6827336299        4.6234412716
  H        52.7410649085       21.0627088014        8.1946907296
  H        14.8813820549       19.7126464808        3.9270553266
  H        17.0834701987       19.8287167349        2.7593282841
  H        18.3780292952       16.3071980951        4.8608102664
  H        16.1775402373       16.2150596380        6.0394095439
  H        16.9607608388       17.7884811198        1.3280886308
  H        52.3220997048       21.6730794526        6.2943544560
  H        52.0131143860       21.7018581019        9.4957814063
  H        49.0672139971       18.6069531547        5.2041475682
  H        13.2476811072       19.0168039383        7.9788655563
  H        29.9481138067       12.4767934974       12.2302656694
  H        28.8839775959       10.5532891099       13.4164342047
  H        25.2592684748       11.1891949400       11.1904338244
  H        26.3411694197       13.1024359846        9.9993992849
  H        27.1581075853       11.6889497219       14.7894159480
  H        31.0092744554       22.7632842563       12.0451049140
  H        32.0222667624       24.6409984309       13.3365541267
  H        35.6906793234       24.1575125116       11.1427378468
  H        34.6571844203       22.2879992718        9.8436133992
  H        33.7153528297       23.5591237852       14.7507105307
  H        25.7224591162        8.5952826291       11.4046933537
  H        30.9276096845       22.5954678233        3.8265595495
  H        31.9330573220       24.4905798268        2.5565784835
  H        35.5075043458       24.1784881369        4.9315296088
  H        34.4827569033       22.2969125133        6.2099051116
  H        33.6669334697       23.5388340129        1.1979481003
  H        40.5753953818       17.0591068409        4.6700541379
  H        32.5248154327       14.1417717660        8.2676090223
  H        29.8470247113       12.5652866976        3.9156211098
  H        28.8216066376       10.6596256593        2.6768910652
  H        25.1515734435       11.2322892018        4.8457760184
  H        26.1959078127       13.1281623098        6.0937319616
  H        27.1309417659       11.7172131380        1.2366283320
  H        33.2745061292       14.1599583788        6.4026476010
  H        33.4097685584       14.4056184446        9.6130649775
  H        32.0700779821       18.5547122244        5.0437730680
  H        30.2349549196       14.1921045945        8.0743574848
  H        16.1183030297        2.9635092074       12.1297447001
  H        14.9533186444        4.8207159862       13.3224263065
  H        17.3666815700        7.6860021380       11.2101305580
  H        18.5152530500        5.8183295744       10.0104116733
  H        16.7538222209        5.7397488478       14.7715124913
  H        44.8278302373       32.1402411836       11.9772264615
  H        45.9370934593       30.3413620594       13.3066350963
  H        43.6823955367       27.3781443080       11.1523673230
  H        42.5997344255       29.1900170587        9.8097325411
  H        44.2302702196       29.4366709515       14.7690576399
  H        14.8515702372        8.5465723367       11.3633273948
  H        44.8999351094       32.2341368131        3.9318531938
  H        46.0248948029       30.4131257778        2.6523885562
  H        43.7637775382       27.4841333605        4.8455504355
  H        42.6458682125       29.3177824565        6.1245418063
  H        44.2685721291       29.4704943115        1.2183154640
  H        34.9904925795       26.6204184512        4.6479729212
  H        36.6051499991       35.1339831664        8.1806620781
  H        16.1437612186        3.0130963967        3.9040727348
  H        14.9742872083        4.8565138329        2.6883409351
  H        17.3963066825        7.7473335709        4.7552718479
  H        18.5432338799        5.8933482470        5.9829398806
  H        16.7648989407        5.7556419118        1.2192558588
  H        36.2790091291       34.4820975460        6.2730599639
  H        36.3810119721       34.2090098324        9.4995710590
  H        40.5788973720       33.2019099655        5.1543198786
  H        17.4711550911        1.9470385822        7.9740338451
  H        29.2290895139       19.4068622875       12.6286811983
  H        31.8592953341       16.1470553225        3.1839760149
  H        31.2357864423       15.5897908125       12.5138455588
  H        28.2618435189       17.9877992443       14.6137865856
  H        29.5496794849       15.5252181308       14.5462659217
  H        30.9219656474       20.3691019095        1.6868551976
  H        33.3108772486       16.6197374214        1.5130503183
  H        28.5845918995       16.4253359058        0.7268180576
  H        32.4934073568       18.6667811069       15.6698251666
  H        18.8530182938        0.8688298226       12.3352303036
  H        40.5279723978       35.2290392395        3.9520779159
  H        42.3242257708       34.4189630739        3.5908512613
  H        22.0877869347        0.6921533735       12.3515107646
  H        11.5969319429       18.7130355241       12.3821495315
  H        52.2650770489       18.4308747752        3.6770415911
  H        49.2551258311       16.4772841477        3.5845889149
  H        10.1495995613       15.7982873653       12.2931893795
  H        50.8501884525       17.6923975178        3.9543116961
  H        10.0458519073       17.3945606516       12.0520057460
  H        20.2141488551        0.0021573017       12.0421087345
  H        39.1835952828       36.1244117183        3.6864858921
 Ni        31.5407382178       18.1595412168        2.0790175367
 Ni        31.3264332756       16.3795119275       -0.0783428117
 Ni        30.1408479729       18.3782465483        0.2490519798
 Ni        30.0949425034       17.3817677201       13.1599217880
  O        10.6499776826       14.3651509913        5.4858730440
  O        12.6132857120       14.6577044054        6.5838907214
  O        49.1478106165       16.8458995576        7.9895860119
  O        50.3503694147       20.9355866730        5.6479639633
  O        48.3486200791       20.5932423519        6.6658638453
  O        11.0518653885       17.0536777375        6.5007853349
  O        50.3209520858       20.8816502352       10.4067777184
  O        48.3467340366       20.5867179687        9.3270326282
  O        49.5437747371       18.2484167679       10.0680545599
  O        12.3594212835       18.6244297640        7.9994351576
  O        48.6932166965       14.1486538934        6.7512625609
  O         8.2098820642       14.2104037592        9.3225269557
  O        10.7354098538       14.5067317638       10.6643149933
  O        12.5718578623       14.5830047343        9.3283370864
  O        22.8452483159        2.0456538338        5.4866097819
  O        21.6051957820        3.5925657844        6.5902695741
  O        42.0579896117       34.1373197737        7.9789254875
  O        37.9812975870       33.1360024738        5.5719805383
  O        39.2169344382       31.5748509452        6.6653093068
  O        20.3084903871        1.0397884672        6.5021409683
  O        38.0247295048       33.1857267374       10.4154157241
  O        39.2185982349       31.5832623088        9.3272702091
  O        40.6521972362       33.7692654952       10.0601000875
  O        18.2558107780        1.3758229034        7.9967885727
  O        44.6221474003       35.1006454031        6.7587483737
  O        24.2053558198        0.0000502750        9.3207837327
  O        22.7534856760        2.0587211262       10.5844366834
  O        21.6251070147        3.5969444014        9.3439988832
  O        27.6352764145       18.6904337080        5.4125817196
  O        26.7408745783       17.0042283693        6.6581772898
  O        30.6675252492       19.4071688944        8.0718185636
  O        33.5382995525       16.3325489795        5.6538966442
  O        34.2672691646       18.1834977494        6.7429803999
  O        29.5762638282       17.0675542858        6.5806425632
  O        33.6078729618       16.3279881297       10.4099024652
  O        34.3051161423       18.2450328586        9.4077937589
  O        31.6531075903       18.3160102597       10.1552818908
  O        30.3253135148       15.1595133731        8.0746925558
  O        28.5526823308       21.0322865177        6.9130181461
  O        28.5157192793       20.9569911140        9.4090085659
  O        27.4520940573       18.6801902886       10.6571304791
  O        26.6920806239       16.9303121695        9.4132827229
  O        13.1478504576       18.6931786656       10.5874628565
  O        13.9199793128       16.9165073546        9.4059601922
  O        50.5961182446       19.3500579721        8.0198172311
  O        47.6834384164       16.3270115254       10.4173724397
  O        46.9512079842       18.1757134778        9.3250817466
  O        11.0702792579       17.0151503684        9.4893601535
  O        47.6748142309       16.3356407796        5.6530782638
  O        46.9255958800       18.2358118288        6.6637908878
  O        49.5690096996       18.3176307054        5.9822218957
  O        10.3187880111       15.1002776717        7.9969702143
  O        52.6707382962       21.0278146350        9.2418090531
  O        12.1468556354       20.8911460788        6.6732180825
  O        13.1102356297       18.6140834671        5.3252738968
  O        13.9605890883       16.9886042261        6.6628234967
  O        29.9998522156       14.4322412081       10.6612612622
  O        28.0779909009       14.6593307889        9.4802683862
  O        32.1012282691       16.9090826069        8.0618173285
  O        30.9637031837       20.9527633021       10.4104071206
  O        32.9447172971       20.6058594753        9.3424572503
  O        29.5633612609       17.0797613964        9.5693784065
  O        30.8723788551       20.8053669451        5.5750431114
  O        32.8625242583       20.5811060346        6.6623482767
  O        31.5924981651       18.2411621397        5.8324560152
  O        28.2873028637       18.6824154254        8.0817027143
  O        32.4955284827       14.2148363133        9.3315383646
  O        32.4004881738       14.2174975864        6.8229233115
  O        29.8568606788       14.5069438286        5.4289031018
  O        28.0046004530       14.6489390302        6.7413282617
  O        17.8892426628        1.9665883855       10.6628064076
  O        18.9562863842        3.5271053410        9.4079887071
  O        39.1685923441       34.1386352789        7.9970522590
  O        43.2801752509       33.0589805101       10.3316689263
  O        42.0343917335       31.5065111039        9.2415753437
  O        20.3176878716        1.0366985119        9.4802477754
  O        43.2760647669       33.1826512747        5.5749308514
  O        42.0052319515       31.5841664053        6.5829878459
  O        40.5791729221       33.7752346856        5.9359923273
  O        22.3673810816        1.3848002492        7.9979348920
  O        36.6727630389       35.0997164281        9.2332763751
  O        16.4457112038        0.0641084745        6.6681877175
  O        17.9364809986        2.0433926849        5.3263740910
  O        18.9190921416        3.5931026288        6.6660176143
  O        29.7891650555       18.9037530995       12.0044591011
  O        31.3103853282       15.9620600071        4.0137281442
  O        31.2312296215       16.4075923224       11.9732040042
  O        32.3561279570       16.5026522604        1.6603545528
  O        29.4486763307       16.7085112411        1.0776366632
  O        30.4163399869       15.8962117426       14.3050399012
  O        31.7378864688       18.3186769926       15.1568157527
  O        30.4081008302       19.5757693111        1.9227127158
  O        29.1401768528       18.3877824112       14.4894634239
  O        39.4568157199       35.2437832815        4.0019824691
  O        19.1410085116        0.0043554105       11.9905689760
  O        41.9696434861       35.1728441029        4.0873352303
  O        21.6913358039       -0.0692469975       11.8958676550
  O        51.3653753618       18.6142090377        4.0054377336
  O        10.7510113535       18.7471628665       11.9048072079
  O        50.0795911732       16.4128155900        4.0917800144
  O         9.5239808262       16.4831647429       11.9912101679
 Zr         9.2968669409       16.0528595319        6.1824675731
 Zr        49.8365982078       16.0066466116        9.7463128913
 Zr        22.0732622170        0.0301896603        6.1890597802
 Zr        42.4608855900       35.1535351232        9.8010179912
 Zr        29.6247770119       19.1118781562        6.3822285258
 Zr        29.5635589215       19.1628199574        9.9252050550
 Zr        11.0378812523       19.0516954207        9.8273980574
 Zr        11.0445330370       19.1545127982        6.2506275185
 Zr        31.3398858842       16.1021603116        9.8854394113
 Zr        31.3921595518       16.0103736593        6.2984626257
 Zr        18.6009763549       -0.0016981458        9.7633433143
 Zr        18.5066379841       -0.0079459109        6.2135577041
 Zr        12.3033607371       16.3239269727        7.9894140472
 Zr        48.6161766637       18.8330052632        8.0098893933
 Zr        20.3154508472        2.4736572746        7.9910305384
 Zr        40.6429897043       32.6866597811        7.9778645307
 Zr        28.3275749249       16.3517200767        8.0895091030
 Zr        32.6561809084       18.8528661127        8.0820394948
  H        30.4745400854       15.5710868917        3.6970075233
