     568
 i =      179, E =     -4744.2821342209
  C        11.8586915776       14.0536090295        5.7414945415
  C        12.4562109494       12.8906195148        5.0232835280
  C        11.7045053269       12.1715176774        4.0817598683
  C        12.2809378445       11.1093257321        3.3894297432
  C        13.6215817317       10.7397377302        3.6171064021
  C        14.3547983857       11.4434998930        4.5903867863
  C        13.7818529339       12.5084996060        5.2818300168
  C        14.2612066980        9.6491000167        2.8437143635
  C        14.2567021116        9.6570668920        1.4220085465
  C        13.7436866874       10.7592811181        0.6681386273
  C        49.1269115236       21.2330133550        5.8796745787
  C        48.5501724408       22.4011149885        5.1526802707
  C        49.3002014126       23.0683908928        4.1716614044
  C        48.7333193518       24.1076156148        3.4385202292
  C        47.4028431756       24.5093885220        3.6672546796
  C        46.6719031285       23.8605471748        4.6807964107
  C        47.2342975571       22.8155547778        5.4100860800
  C        46.7725626435       25.5870964650        2.8699858362
  C        46.7613284573       25.5573971955        1.4482136917
  C        47.2611701536       24.4422614349        0.7047173344
  C        14.8607025098        8.5707658194        0.7087317189
  C        14.8920032827        8.5971594290        3.5203490943
  C        49.1128047839       21.2033114734       10.1453084084
  C        48.5272196082       22.3645492678       10.8726157414
  C        49.2665555435       23.0254658426       11.8653112609
  C        48.6902010578       24.0599747654       12.5968325617
  C        47.3596841533       24.4565184113       12.3588290109
  C        46.6391295817       23.8113572689       11.3355695748
  C        47.2127072676       22.7754819230       10.6037282463
  C        46.7212951235       25.5315539725       13.1498544735
  C        46.7331575465       25.5280190534       14.5715642833
  C        47.2487090323       24.4288646775       15.3279536407
  C        40.6085722032       17.0893356858       15.3299238531
  C        40.6334791686       17.1038160443       12.5202520569
  C        11.8830026045       14.0867184986       10.2853977993
  C        12.4725813990       12.9110833768       10.9898386859
  C        11.7152671963       12.1778299453       11.9160596598
  C        12.2820361286       11.0954510520       12.5844662702
  C        13.6208844612       10.7218786120       12.3525596300
  C        14.3587095376       11.4375104700       11.3916934353
  C        13.7930540384       12.5185723693       10.7190002793
  C        14.2545818839        9.6251276173       13.1229321663
  C        14.2532258831        9.6449624983       14.5447840330
  C        13.7433483700       10.7538917905       15.2918851903
  C        22.5195563943        3.2480230878        5.7540420265
  C        23.2488326926        4.3520287741        5.0610446069
  C        24.2546037659        4.0666850387        4.1248113074
  C        24.8976381286        5.1012070166        3.4483409996
  C        24.5535854575        6.4475035763        3.6851593740
  C        23.5762314616        6.7244408786        4.6592316945
  C        22.9285224515        5.6913820162        5.3346492838
  C        25.1724530085        7.5488660080        2.9061834048
  C        25.1383513920        7.5395255200        1.4835529429
  C        24.4267633701        6.5429959113        0.7423706230
  C        38.2969449461       31.9287523397        5.8541181955
  C        37.5522178418       30.8392386773        5.1574111237
  C        36.5805892597       31.1449209113        4.1919659098
  C        35.9488902460       30.1260815255        3.4839772585
  C        36.2737175464       28.7753462426        3.7178138664
  C        37.2136853956       28.4768744652        4.7222568303
  C        37.8490819044       29.4947757916        5.4299546801
  C        35.6651281628       27.6881290395        2.9164474998
  C        35.7028483891       27.7102979168        1.4945921610
  C        36.4158235304       28.7137987944        0.7649818008
  C        25.7627486869        8.6049356165        0.7567329689
  C        25.7834011201        8.6217948406        3.5696963355
  C        38.3313893072       31.9631179206       10.1608264400
  C        37.6132838052       30.8949447423       10.9146033318
  C        36.6840459458       31.2139350593       11.9168467648
  C        36.0694529325       30.2035710118       12.6541535243
  C        36.3690818575       28.8480825209       12.4124463261
  C        37.2806841257       28.5388432128       11.3841829129
  C        37.8974402470       29.5459064782       10.6481957798
  C        35.7455482884       27.7547895588       13.1938006386
  C        35.7434796927       27.7449713631       14.6161963447
  C        36.4348670072       28.7305847215       15.3883507644
  C        46.1352752673       26.6207296490       15.2817006435
  C        46.0873351070       26.5799129671       12.4738055204
  C        22.4627828174        3.2570237566       10.2604597082
  C        23.1600899083        4.3631776319       10.9864397881
  C        24.1605399876        4.0715877190       11.9277976901
  C        24.7942539894        5.0972005463       12.6258632570
  C        24.4490992444        6.4460612930       12.4061853848
  C        23.4704214513        6.7307413564       11.4345066911
  C        22.8319796565        5.7052883121       10.7368810004
  C        25.0907238920        7.5409745919       13.1780837368
  C        25.0967419714        7.5345659453       14.6016696787
  C        24.4053958608        6.5416175427       15.3653962139
  C        26.6996992478       17.8401958459        5.6875715432
  C        25.3942136876       17.9259852493        4.9632985498
  C        25.1401144319       18.9306177690        4.0167311788
  C        23.9073709241       18.9878381917        3.3657126264
  C        22.8947537407       18.0441243481        3.6369042104
  C        23.1487276709       17.0619822698        4.6124352003
  C        24.3790487240       17.0010502372        5.2622550117
  C        21.6071543844       18.0425796558        2.8956340583
  C        21.5903279457       17.9967358337        1.4739353884
  C        22.7873625483       17.8587518831        0.7018102105
  C        34.3461056210       17.2192977341        5.8455742399
  C        35.6512416902       17.1403190822        5.1295357000
  C        35.8618580359       16.1774199703        4.1294860165
  C        37.0583099089       16.1502536831        3.4171183507
  C        38.0803712092       17.0844628627        3.6816955997
  C        37.8739922910       18.0218664440        4.7127519164
  C        36.6756800451       18.0548896375        5.4226244411
  C        39.3433007747       17.0923149312        2.9045354847
  C        39.3446589239       17.1125951417        1.4816746396
  C        38.1418866196       17.2490092212        0.7194544212
  C        20.3351879789       17.9983742842        0.7809940495
  C        20.3894392580       18.0497669179        3.5931342806
  C        34.4440225348       17.2333454557       10.1916385174
  C        35.7413557817       17.1353382725       10.9174760868
  C        35.9263112863       16.1848639134       11.9327729835
  C        37.1178255096       16.1529131065       12.6532486486
  C        38.1512805608       17.0724672245       12.3844424106
  C        37.9694375595       17.9965629586       11.3376464133
  C        36.7792153663       18.0323456479       10.6175876954
  C        39.3987679909       17.0922985518       13.1812260415
  C        39.3729748120       17.1148214145       14.6032661615
  C        38.1553838284       17.2492480025       15.3426614901
  C        35.1025788310       26.6667161497       15.3125291425
  C        35.1502257607       26.6915590008       12.5032366166
  C        26.5196015943       17.8240112572       10.3080497980
  C        25.1947106769       17.8599253764       10.9940344399
  C        24.9187632359       18.8842956890       11.9125213987
  C        23.7080330086       18.9046646034       12.5962033267
  C        22.7446630356       17.8983904639       12.3869646983
  C        23.0112459837       16.8997450102       11.4329669137
  C        24.2241177576       16.8786890850       10.7447306091
  C        21.4920765052       17.8841418780       13.1766895113
  C        21.5321379569       17.9131408164       14.5975261125
  C        22.7596752497       17.8194904516       15.3264589654
  C        14.0386549084       17.8235412062       10.2946205082
  C        15.3313020309       17.8686569910       11.0363513025
  C        15.5870639296       18.8786138665       11.9765747461
  C        16.7898253720       18.8952251421       12.6787736691
  C        17.7675990125       17.9039438005       12.4619535293
  C        17.5138099842       16.9133582731       11.4947880432
  C        16.3111558020       16.8929467316       10.7933010988
  C        19.0389219168       17.8953129788       13.2226690041
  C        19.0520215994       17.9287673950       14.6437314013
  C        17.8529585819       17.8504835973       15.4192315405
  C        46.8015674708       17.2186255310       10.1617779587
  C        45.5109176511       17.1527834998       10.9115765546
  C        45.3114500319       16.1760600747       11.9002730745
  C        44.1302333681       16.1489448666       12.6384846169
  C        43.1138927047       17.0981919562       12.4120482072
  C        43.3115196732       18.0557163332       11.3978223855
  C        44.4937922390       18.0869660185       10.6606942344
  C        41.8574698857       17.0994571026       13.2007738931
  C        41.8579066823       17.1011053471       14.6239851117
  C        43.0635202268       17.1965719864       15.3877014878
  C        20.3063158758       17.9562271142       15.3368179952
  C        20.2536357155       17.8549724900       12.5257620951
  C        46.7797747804       17.2291984224        5.8897713170
  C        45.4700911340       17.1168178500        5.1811801612
  C        45.2468109634       16.1151415118        4.2236417637
  C        44.0535022898       16.0811963167        3.5047983293
  C        43.0498078949       17.0455167388        3.7241617858
  C        43.2630900277       18.0158568876        4.7216936732
  C        44.4577586695       18.0562622541        5.4356425646
  C        41.8009779941       17.0645516291        2.9259465327
  C        41.8290762190       17.0816910354        1.5037061504
  C        43.0499551148       17.1846033644        0.7647292711
  C        46.1532361876       26.6372492077        0.7264680990
  C        46.1627621451       26.6563022766        3.5361151334
  C        14.0534477000       17.8416214684        5.7148626600
  C        15.3840035669       17.9413158027        5.0410636583
  C        15.6560753046       18.9742226245        4.1306703184
  C        16.8897516040       19.0349132606        3.4849527904
  C        17.8826218167       18.0622062822        3.7208344599
  C        17.6187398875       17.0604483246        4.6731388672
  C        16.3871096692       16.9997127365        5.3237294640
  C        19.1476062813       18.0500401308        2.9419503797
  C        19.1080664102       18.0075509079        1.5203574940
  C        17.8801017266       17.8859450740        0.7948801623
  C        28.8117454871       14.0859996832       10.3579681234
  C        28.2101385233       12.9095668695       11.0532113528
  C        28.9446287681       12.1657603404       11.9886811594
  C        28.3527211800       11.0904333412       12.6479876383
  C        27.0124368115       10.7328553938       12.3959287901
  C        26.2993771505       11.4575043902       11.4236141933
  C        26.8884254031       12.5335591262       10.7637621035
  C        26.3506833374        9.6511649800       13.1640842399
  C        26.3518173566        9.6752462590       14.5856325651
  C        26.8642345883       10.7869450775       15.3263985157
  C        32.1683223984       21.2537621977       10.1811651281
  C        32.7503484029       22.4314849329       10.8870755746
  C        31.9964671506       23.1109663157       11.8561066868
  C        32.5611535582       24.1589736672       12.5767094480
  C        33.8944590780       24.5525903349       12.3507023037
  C        34.6290437209       23.8932293356       11.3474215657
  C        34.0670288243       22.8409183453       10.6280581415
  C        34.5235871264       25.6241852914       13.1552838004
  C        34.5102104047       25.5887656944       14.5766995469
  C        33.9979561738       24.4699191057       15.3065580993
  C        25.7451768022        8.5993258652       15.3109126527
  C        25.7040839007        8.6019941740       12.4970089034
  C        32.0859438029       21.1644487500        5.8352052063
  C        32.6558141591       22.3278240084        5.0968993326
  C        31.9127463839       22.9998513897        4.1132233086
  C        32.4821742708       24.0511350109        3.3970532531
  C        33.8075538789       24.4620060211        3.6450917632
  C        34.5310948035       23.8041267608        4.6582269663
  C        33.9675315760       22.7490581291        5.3699100323
  C        34.4442398830       25.5566945531        2.8751016732
  C        34.4677079084       25.5553537541        1.4531355277
  C        33.9771356029       24.4544022714        0.6829317864
  C        40.5937083114       17.0840094635        0.7758684909
  C        40.5666306961       17.0856578775        3.5871713802
  C        28.7578738597       14.1352476875        5.7718076907
  C        28.1803321989       12.9721208781        5.0337907338
  C        28.9205328483       12.2832399900        4.0605327528
  C        28.3573496348       11.2017888790        3.3837853613
  C        27.0365326243       10.7836594698        3.6489571650
  C        26.3156665717       11.4616250028        4.6504633880
  C        26.8774238816       12.5386298636        5.3319485833
  C        26.3980175886        9.6813625910        2.8863178929
  C        26.3768548128        9.6912929616        1.4637122127
  C        26.8731193667       10.7961111292        0.7022406697
  C        18.1356896378        3.1811966197       10.3170708602
  C        17.4065327219        4.2784777131       11.0156310037
  C        16.3908332737        4.0002333928       11.9432403462
  C        15.7432608997        5.0402766870       12.6067699098
  C        16.0952324830        6.3840043004       12.3670814343
  C        17.0845675372        6.6533930452       11.4032135942
  C        17.7335472264        5.6159999982       10.7381194544
  C        15.4709809211        7.4917393524       13.1301607877
  C        15.4860975517        7.4908896302       14.5518864026
  C        16.1875762424        6.4972378735       15.3050803402
  C        42.9458185971       31.8595772157       10.0728895041
  C        43.6460768619       30.7718664895       10.8168646314
  C        44.5914086314       31.0931229992       11.8031610488
  C        45.1970252196       30.0875485565       12.5508632267
  C        44.8707316311       28.7344639671       12.3358556905
  C        43.9451713289       28.4201781171       11.3223644398
  C        43.3364704321       29.4253545777       10.5742745243
  C        45.4882406123       27.6551264776       13.1390646108
  C        45.4925378512       27.6808344835       14.5607632989
  C        44.8055653342       28.6889249507       15.3074309931
  C        14.8571081555        8.5633495234       15.2642899760
  C        14.8758168766        8.5636177678       12.4516134212
  C        42.9465360890       31.9618679907        5.8090037369
  C        43.6919629774       30.8857629720        5.0957210410
  C        44.6561815800       31.1916611438        4.1230321375
  C        45.2777497430       30.1720662517        3.4053584542
  C        44.9544227409       28.8216948855        3.6433727233
  C        44.0214081055       28.5240583445        4.6546118901
  C        43.3931055718       29.5408234530        5.3667566101
  C        45.5633524743       27.7242655966        2.8580811420
  C        45.5334155522       27.7174845112        1.4367787871
  C        44.8269936790       28.7076446947        0.6838233088
  C        35.0814684665       26.6495033843        0.7575438281
  C        35.0543025264       26.6102177229        3.5682951552
  C        18.1490315708        3.2472616006        5.7066299567
  C        17.4303586901        4.3440822407        4.9975961789
  C        16.4153084283        4.0527471588        4.0738301184
  C        15.7669966210        5.0833219280        3.3983995637
  C        16.1214307591        6.4286113520        3.6212593679
  C        17.1125797807        6.7120481753        4.5787545261
  C        17.7602977924        5.6831903980        5.2585718187
  C        15.4909119386        7.5242601022        2.8487653333
  C        15.4968597309        7.5076262501        1.4276236840
  C        16.1936894337        6.5059880387        0.6809000725
  H        10.6723292779       12.4655096898        3.9047944454
  H        11.6946849984       10.5507371138        2.6629440869
  H        15.3919528576       11.1692362420        4.7719238842
  H        14.3514387543       13.0720343552        6.0169366444
  H        13.3767250732       11.6314019092        1.2014951055
  H        50.3228626314       22.7482353464        3.9868442191
  H        49.3198422650       24.6228411058        2.6809424913
  H        45.6424642082       24.1614377016        4.8640685469
  H        46.6633079062       22.2903131832        6.1722015346
  H        47.6298373083       23.5759421030        1.2464095211
  H        14.8723511380        8.5884347019        4.6086565997
  H        50.2867007824       22.7027946904       12.0600127222
  H        49.2687018169       24.5755897105       13.3601482808
  H        45.6096208684       24.1083843452       11.1467380586
  H        46.6517956021       22.2530834998        9.8323844287
  H        47.6074663432       23.5517329627       14.7970560527
  H        40.6425843527       17.0641468209       11.4326343110
  H        48.6869341817       14.0953377975        7.7999856995
  H        10.6817664364       12.4667523525       12.0935270105
  H        11.6903634260       10.5249850649       13.2972033669
  H        15.3941901745       11.1598391417       11.2057052802
  H        14.3652628900       13.0878991411        9.9903272283
  H        13.3767544537       11.6226241819       14.7532780680
  H        47.9300703763       14.2190742759        9.7109582024
  H        47.7799416374       14.3739123220        6.4950493794
  H        49.0835304478       18.5521416550       10.8671033081
  H        10.4158990931       14.1345022724        7.9985634610
  H        24.5108282374        3.0265202394        3.9358783197
  H        25.6756947690        4.8747491487        2.7224355582
  H        23.2999651832        7.7591254621        4.8517518733
  H        22.1527830053        5.9009322435        6.0673233614
  H        23.8661891222        5.7887552938        1.2868653985
  H        36.3459824203       32.1887293509        3.9971083265
  H        35.1971298294       30.3679690641        2.7358390295
  H        37.4727645474       27.4371578488        4.9114436604
  H        38.6009016690       29.2710218874        6.1831735394
  H        36.9793182950       29.4601197859        1.3172817220
  H        25.8229525905        8.6080564699        4.6575198409
  H        36.4627545056       32.2603778887       12.1141546025
  H        35.3417563775       30.4574712483       13.4217896503
  H        37.5257103355       27.4963131458       11.1922218908
  H        38.6215515187       29.3113946128        9.8716762921
  H        37.0141517216       29.4893022526       14.8698410565
  H        46.1087036523       26.5872253662       11.3857677092
  H        44.6683235311       35.1161612276        7.8139305350
  H        24.4335111978        3.0318754160       12.0936240563
  H        25.5743719194        4.8617729248       13.3466831255
  H        23.1907211092        7.7668434852       11.2547237888
  H        22.0616738159        5.9247513081       10.0010743559
  H        23.8275281858        5.7869261354       14.8396941840
  H        44.9538384404       34.3904894080        9.6951972186
  H        44.9012834618       34.2067495819        6.4905125020
  H        40.6669260849       33.2100740261       10.8534535171
  H        23.1513888466        1.9579676486        8.0059568967
  H        25.9179737200       19.6615831930        3.8064182491
  H        23.7155967835       19.7731886802        2.6375923733
  H        22.3809157283       16.3225267553        4.8306106678
  H        24.5814971980       16.2313951193        6.0028983682
  H        23.7348486398       17.7522305794        1.2216553570
  H        35.0716757098       15.4611897863        3.9172540280
  H        37.2150910186       15.3973671119        2.6477742670
  H        38.6526098139       18.7512213346        4.9265941213
  H        36.5043025653       18.7970807333        6.1988858285
  H        37.2012744485       17.3869891748        1.2450773987
  H        20.4098167160       18.1001613595        4.6805017541
  H        35.1179528538       15.4946204717       12.1630631613
  H        37.2571100478       15.4117409543       13.4370087160
  H        38.7578186489       18.7151789263       11.1236471321
  H        36.6210816426       18.7665124647        9.8314589643
  H        37.2251560808       17.3868212482       14.7987481266
  H        35.1299390475       26.7215996775       11.4155058426
  H        28.4545539981       21.0861981419        8.4396438619
  H        25.6716553943       19.6522938016       12.0739641673
  H        23.4935961892       19.7013350616       13.3052595313
  H        22.2737190791       16.1174116834       11.2655749254
  H        24.4490233971       16.0947021960       10.0252075350
  H        23.6850198047       17.6836260654       14.7744030354
  H        29.0876065557       21.7451034865        9.7618875005
  H        28.8883962463       21.7630147321        6.5158994133
  H        32.1202526462       18.5080950194       11.0072434019
  H        27.3478621531       19.0734186845        8.0466311255
  H        14.8345402548       19.6470999769       12.1381662618
  H        16.9895430450       19.6864514867       13.3981473416
  H        18.2597171211       16.1402431383       11.3222726462
  H        16.1022519608       16.1186307901       10.0590371665
  H        16.9045575710       17.7267739823       14.9044269430
  H        46.0996044029       15.4495190224       12.0837397418
  H        43.9803782159       15.3814471918       13.3947190198
  H        42.5376941610       18.7987932221       11.2162256804
  H        44.6578691096       18.8416990839        9.8949348290
  H        44.0072858059       17.3106510544       14.8619556856
  H        20.2340605857       17.8581912389       11.4374681536
  H        46.0247881907       15.3768925653        4.0424334310
  H        43.8875130657       15.3034243521        2.7624953646
  H        42.4958356363       18.7663208196        4.9006836954
  H        44.6400624174       18.8262089401        6.1814667798
  H        43.9833909222       17.2882963115        1.3102971753
  H        46.1998430572       26.6829245397        4.6235517188
  H        52.7412184170       21.0627320848        8.1946057833
  H        14.8892546988       19.7226230954        3.9429204226
  H        17.0946905580       19.8374231816        2.7794832641
  H        18.3748155452       16.3021322920        4.8663195106
  H        16.1716282564       16.2113194279        6.0410161443
  H        16.9523448196       17.7897483415        1.3507026706
  H        52.3222474304       21.6733145204        6.2943864468
  H        52.0136282487       21.7025306322        9.4955499915
  H        49.0665569667       18.6066385275        5.2040452730
  H        13.2476987454       19.0163731428        7.9796888256
  H        29.9769123119       12.4457802301       12.1868881791
  H        28.9251669999       10.5144412726       13.3719266391
  H        25.2634538733       11.1935033609       11.2208209852
  H        26.3337242566       13.1141179502       10.0306532666
  H        27.2236322652       11.6548355140       14.7817167685
  H        30.9756007296       22.7872524698       12.0450920871
  H        31.9738070801       24.6837156607       13.3270085917
  H        35.6609541666       24.1879087888       11.1679488749
  H        34.6411986079       22.3038694602        9.8767829394
  H        33.6470206018       23.6026409863       14.7546388942
  H        25.7227284376        8.5835389317       11.4087163828
  H        30.8892548804       22.6850736082        3.9210354781
  H        31.8987925718       24.5729512612        2.6414849715
  H        35.5565864455       24.1086804734        4.8568046091
  H        34.5334411410       22.2225614957        6.1345957036
  H        33.6104704342       23.5743709738        1.2033402852
  H        40.5573914535       17.0447759847        4.6748494425
  H        32.5164171517       14.1499972146        8.2541332887
  H        29.9385416059       12.6053055785        3.8523085769
  H        28.9422210168       10.6641450640        2.6405409708
  H        25.2937116559       11.1556634428        4.8647771797
  H        26.3146765359       13.0728981581        6.0934842141
  H        27.2371696642       11.6724168865        1.2301487414
  H        33.2789365286       14.1990894900        6.4187190635
  H        33.4076278854       14.3967238764        9.6072937180
  H        32.1707429287       18.6059938635        5.1406323832
  H        30.2346822646       14.1954541396        8.0745923905
  H        16.1186641536        2.9637708031       12.1296944806
  H        14.9538307134        4.8209739943       13.3224732970
  H        17.3670969154        7.6862328191       11.2100432677
  H        18.5155946360        5.8186693106       10.0102858322
  H        16.7542611831        5.7399758617       14.7716076432
  H        44.8276523263       32.1401912029       11.9774860680
  H        45.9367624680       30.3412972061       13.3069353607
  H        43.6826561762       27.3780974454       11.1520360873
  H        42.6001535112       29.1900064728        9.8093250109
  H        44.2301890514       29.4367026226       14.7691665963
  H        14.8521826873        8.5469732209       11.3633877256
  H        44.8994262858       32.2343508024        3.9312477751
  H        46.0243538831       30.4133399073        2.6518362566
  H        43.7648732056       27.4842970150        4.8465786070
  H        42.6470182627       29.3179742213        6.1255911414
  H        44.2685799851       29.4706054938        1.2183958377
  H        35.0093004698       26.6158355565        4.6558042607
  H        36.6052634717       35.1344022566        8.1805976792
  H        16.1443570785        3.0131624263        3.9039816569
  H        14.9748187303        4.8564427502        2.6881646352
  H        17.3959329867        7.7475352972        4.7557859724
  H        18.5430701499        5.8937739983        5.9834132347
  H        16.7651765427        5.7557676725        1.2193079185
  H        36.2793319595       34.4823819451        6.2730329772
  H        36.3817682695       34.2088987008        9.4991091456
  H        40.5794510196       33.2027446867        5.1538559350
  H        17.4718804341        1.9481755896        7.9740758610
  H        31.2774948721       16.1955061686        3.8501782294
  H        31.3905382062       15.7718702744       12.6278296858
  H        28.7300621190       19.2180532839       14.0867171952
  H        29.6278740687       15.9764276156       14.6877595725
  H        30.9970410821       19.7435540111        2.1238931365
  H        32.5812700590       15.7983946360        2.0321308147
  H        29.0130567323       16.2055192706        0.7760557648
  H        33.6257070487       16.9817032801       15.7696667270
  H        18.8536316313        0.8690157981       12.3354354360
  H        40.5278639556       35.2290294365        3.9519072748
  H        42.3248775821       34.4194956083        3.5904077211
  H        22.0878392231        0.6923722716       12.3513752678
  H        11.5967453666       18.7130837385       12.3817144158
  H        52.2652363253       18.4308514162        3.6771690541
  H        49.2552051337       16.4766637704        3.5841594616
  H        10.1504129833       15.7984465295       12.2927833199
  H        50.8503153873       17.6926263084        3.9541883738
  H        10.0462476669       17.3950406591       12.0518777132
  H        20.2149763441        0.0024613678       12.0419820293
  H        39.1836864975       36.1244685457        3.6862815859
 Ni        31.0726979545       17.3594568467        2.9188247808
 Ni        31.4154655481       16.6063398172        0.1618202982
 Ni        29.7968069205       18.5789401939        0.3342604700
 Ni        30.2667597345       17.6708233521       13.2405795434
  O        10.6498790480       14.3651603159        5.4858187788
  O        12.6132031023       14.6576095948        6.5837975155
  O        49.1474158667       16.8458628853        7.9895766483
  O        50.3502785631       20.9357378746        5.6479726088
  O        48.3485398666       20.5931817102        6.6659098974
  O        11.0513134210       17.0539933171        6.5006171960
  O        50.3205661015       20.8817329530       10.4068252835
  O        48.3465388406       20.5865779883        9.3269715753
  O        49.5437002310       18.2483741213       10.0679945163
  O        12.3591951397       18.6245122031        7.9991908839
  O        48.6931275894       14.1487829118        6.7512297903
  O         8.2097891214       14.2106015351        9.3226121159
  O        10.7352541975       14.5067090109       10.6643070511
  O        12.5717306800       14.5828605563        9.3283498429
  O        22.8459956508        2.0451610870        5.4864597145
  O        21.6087099504        3.5947267215        6.5868609958
  O        42.0582550857       34.1376403716        7.9787316897
  O        37.9813598752       33.1372151722        5.5725125729
  O        39.2176151316       31.5756658780        6.6660475134
  O        20.3088072652        1.0404054781        6.5023886456
  O        38.0253060084       33.1872362166       10.4149249812
  O        39.2181273492       31.5830059327        9.3278375121
  O        40.6523885179       33.7696397246       10.0600626702
  O        18.2562882441        1.3766121455        7.9966944667
  O        44.6221917150       35.1006193632        6.7587339955
  O        24.2053736797        0.0000437559        9.3207076956
  O        22.7534436948        2.0578814387       10.5843341989
  O        21.6260221991        3.5978623282        9.3457967895
  O        27.6283243460       18.6813440225        5.4023570411
  O        26.7774044747       16.9310589443        6.5847151705
  O        30.6722256121       19.4052096458        8.0967624879
  O        33.4590876784       16.3344159698        5.5734029294
  O        34.1822633272       18.1831626647        6.6666768941
  O        29.5697775047       17.0758512505        6.5910046483
  O        33.5555240098       16.3382949188       10.4142649456
  O        34.3067070465       18.2346849029        9.4036880328
  O        31.7125817208       18.3101789474       10.1466683331
  O        30.3254411377       15.1627488677        8.0797098340
  O        28.5114674337       20.9608240233        6.9120613864
  O        28.4749313821       21.0373638568        9.4877374589
  O        27.3823778727       18.6862282673       10.6583259015
  O        26.6853723033       16.9204444187        9.4078927136
  O        13.1445757346       18.6937669171       10.5865682902
  O        13.9174908904       16.9160789605        9.4046930128
  O        50.5956628089       19.3499761636        8.0192104899
  O        47.6815286315       16.3277002156       10.4180796600
  O        46.9486816687       18.1754152849        9.3267957051
  O        11.0697642421       17.0153290027        9.4892542732
  O        47.6728214790       16.3361001696        5.6519985445
  O        46.9245663910       18.2356936284        6.6627087005
  O        49.5685240624       18.3176121639        5.9821139116
  O        10.3185618121       15.1003530269        7.9970273624
  O        52.6706825843       21.0279139747        9.2417370402
  O        12.1468407653       20.8912863239        6.6732260848
  O        13.1101276623       18.6140638919        5.3256236173
  O        13.9599622202       16.9881398012        6.6635387305
  O        30.0031587223       14.4349067623       10.6636035746
  O        28.0795579695       14.6578453696        9.4816801835
  O        32.0962847172       16.9036347103        8.0573275010
  O        30.9537562224       20.9604793208       10.4126689421
  O        32.9562110912       20.5971543161        9.4063951039
  O        29.5675948615       17.0743248445        9.5776926212
  O        30.8765130096       20.8141725686        5.5728186822
  O        32.8598675611       20.5792709481        6.6670722326
  O        31.5016062448       18.2385057667        5.7399356977
  O        28.2303984274       18.6714481920        8.0903521569
  O        32.4917195073       14.2156094338        9.3273911628
  O        32.3953313771       14.2264079816        6.8209372559
  O        29.9088444816       14.5792288933        5.4135744705
  O        28.0547423275       14.5907614596        6.7405640002
  O        17.8892948069        1.9667547905       10.6627107730
  O        18.9565503805        3.5271519526        9.4078291543
  O        39.1686650574       34.1388118915        7.9970538257
  O        43.2801613121       33.0589890128       10.3316945306
  O        42.0343496496       31.5065243152        9.2416069087
  O        20.3182336678        1.0374867620        9.4794927934
  O        43.2760982241       33.1828574595        5.5749633360
  O        42.0052465779       31.5842102181        6.5829606773
  O        40.5792078941       33.7755407856        5.9358930489
  O        22.3677583372        1.3853890933        7.9977985147
  O        36.6728393551       35.0998927423        9.2331913312
  O        16.4458586528        0.0644237301        6.6682180370
  O        17.9365866315        2.0436204528        5.3264721695
  O        18.9196241789        3.5931743662        6.6660182226
  O        29.7837231291       18.8998324538       11.9779071040
  O        31.1763466002       16.4989542327       12.0106064438
  O        32.3993762367       16.7157466786        1.7583692931
  O        29.7389984133       16.7831304697        1.0824897347
  O        30.5415272457       16.2579547999       14.4990181077
  O        32.9178833536       16.7031921754       15.1612806293
  O        30.4162956437       18.9647417490        2.0838577689
  O        29.4528220565       18.7465116073       14.5412784861
  O        39.4567746732       35.2438584428        4.0019744164
  O        19.1416078513        0.0046465823       11.9904885381
  O        41.9696312495       35.1728533039        4.0871983523
  O        21.6914193129       -0.0691173672       11.8958244417
  O        51.3654570169       18.6142579609        4.0053984549
  O        10.7505653977       18.7471892356       11.9048356433
  O        50.0794254324       16.4127881188        4.0918087209
  O         9.5245062543       16.4832024097       11.9911128861
 Zr         9.2968711690       16.0530928500        6.1822976873
 Zr        49.8366506050       16.0068581726        9.7466052341
 Zr        22.0735562615        0.0310837134        6.1885123420
 Zr        42.4611015668       35.1540927978        9.8009668618
 Zr        29.5718852401       19.1939435194        6.4469713891
 Zr        29.5711912044       19.1109796149       10.0907233919
 Zr        11.0373775098       19.0520386328        9.8270934271
 Zr        11.0448268372       19.1546452808        6.2502965034
 Zr        31.3324024972       16.1047583362        9.8880101360
 Zr        31.3576078134       16.0454304991        6.3121620705
 Zr        18.6015971074       -0.0003018288        9.7630359590
 Zr        18.5070575190       -0.0068522311        6.2138706931
 Zr        12.3030925508       16.3237937426        7.9890305583
 Zr        48.6158254813       18.8326128596        8.0099721233
 Zr        20.3171889238        2.4754986127        7.9903388834
 Zr        40.6438361051       32.6875458519        7.9780575513
 Zr        28.3265216996       16.3607462832        8.0762581491
 Zr        32.6258927464       18.8705363484        8.1153921891
