     568
 i =      497, E =     -4744.3030397249
  C        11.8588397216       14.0535405162        5.7414681413
  C        12.4564027716       12.8906507792        5.0232487015
  C        11.7047922436       12.1715574226        4.0816451237
  C        12.2813676924       11.1094404765        3.3893447253
  C        13.6220260319       10.7399633272        3.6171057555
  C        14.3551321719       11.4437614136        4.5904261500
  C        13.7820799595       12.5086904966        5.2818481344
  C        14.2617569549        9.6493988140        2.8437213728
  C        14.2574417190        9.6574998818        1.4220265176
  C        13.7444767588       10.7597651897        0.6681886053
  C        49.1270607061       21.2330681498        5.8795789387
  C        48.5503423111       22.4012100273        5.1526039024
  C        49.3003425679       23.0684619850        4.1715536177
  C        48.7334128607       24.1076347938        3.4383691241
  C        47.4029938229       24.5095043619        3.6672252362
  C        46.6721110835       23.8607193555        4.6808423571
  C        47.2345428034       22.8157816804        5.4101685799
  C        46.7726256051       25.5871418430        2.8699414476
  C        46.7612575531       25.5573748577        1.4481793236
  C        47.2611715639       24.4422682709        0.7046891267
  C        14.8615286241        8.5712475751        0.7087585738
  C        14.8924176817        8.5973999029        3.5203792763
  C        49.1129786460       21.2033918023       10.1453004880
  C        48.5274331295       22.3646767951       10.8726004762
  C        49.2666324371       23.0253246480       11.8655637275
  C        48.6902857350       24.0598643345       12.5970547398
  C        47.3598939355       24.4566549362       12.3587926490
  C        46.6395171319       23.8117998927       11.3352084161
  C        47.2130885051       22.7759198994       10.6033878817
  C        46.7214261413       25.5316287675       13.1498229786
  C        46.7331166248       25.5279997552       14.5715339852
  C        47.2487062363       24.4288620636       15.3279232795
  C        40.6245930685       17.1304287319       15.3457322266
  C        40.6615692176       17.1819966839       12.5371420217
  C        11.8831829800       14.0867125138       10.2854691493
  C        12.4729622206       12.9113212878       10.9900319215
  C        11.7157484810       12.1778622677       11.9161732213
  C        12.2827728788       11.0956185786       12.5845685324
  C        13.6217312967       10.7223794042       12.3527065696
  C        14.3594856584       11.4383110009       11.3920105707
  C        13.7935896158       12.5192345368       10.7193126183
  C        14.2555737526        9.6256760013       13.1230141627
  C        14.2541749554        9.6455388583       14.5448504603
  C        13.7442738761       10.7544645814       15.2919383680
  C        22.5193659491        3.2468632685        5.7553451054
  C        23.2496871678        4.3495701903        5.0638494522
  C        24.2571939630        4.0623175126        4.1303102506
  C        24.9009207504        5.0958522810        3.4537170047
  C        24.5549687429        6.4417193933        3.6886063079
  C        23.5763044137        6.7207225775        4.6604846457
  C        22.9278932009        5.6886594247        5.3359806639
  C        25.1733665318        7.5419234096        2.9094899302
  C        25.1385185184        7.5321226759        1.4873226574
  C        24.4272018904        6.5349654909        0.7466818684
  C        38.2961051293       31.9292223779        5.8547305724
  C        37.5488854344       30.8407162077        5.1590089352
  C        36.5752459821       31.1485321552        4.1962570127
  C        35.9409186699       30.1312923009        3.4883750593
  C        36.2651301442       28.7800393213        3.7196811133
  C        37.2069599880       28.4793027837        4.7217107510
  C        37.8450397191       29.4956837640        5.4292833741
  C        35.6541473245       27.6945214958        2.9177377478
  C        35.6910453976       27.7178360277        1.4958714662
  C        36.4047128480       28.7211809167        0.7667675870
  C        25.7610117386        8.5985891255        0.7610340093
  C        25.7831572842        8.6145749071        3.5736550941
  C        38.3312004843       31.9636619976       10.1607584973
  C        37.6114677361       30.8970717802       10.9150387987
  C        36.6818726126       31.2192129619       11.9159640301
  C        36.0644760077       30.2111415307       12.6538973245
  C        36.3617178441       28.8549055485       12.4139624931
  C        37.2740037709       28.5424542958       11.3872744591
  C        37.8935458228       29.5473095387       10.6505922298
  C        35.7347624115       27.7636836118       13.1953037575
  C        35.7317073842       27.7538718914       14.6176720088
  C        36.4238903997       28.7385805970       15.3901630519
  C        46.1351346327       26.6206508402       15.2816772383
  C        46.0874915149       26.5800114588       12.4737801798
  C        22.4617676385        3.2563517002       10.2604037932
  C        23.1571445552        4.3622161068       10.9875282468
  C        24.1582095439        4.0705802909       11.9281379037
  C        24.7899630523        5.0961585196       12.6277013407
  C        24.4418112642        6.4445186607       12.4100981095
  C        23.4625776966        6.7292709453       11.4390975269
  C        22.8261920542        5.7039002939       10.7398210675
  C        25.0818649231        7.5391471146       13.1827962522
  C        25.0914999090        7.5300880157       14.6062166987
  C        24.4034004702        6.5347993848       15.3698550971
  C        26.7046906640       17.8384142340        5.6875836088
  C        25.3983678501       17.9175348497        4.9600514824
  C        25.1374954121       18.9210235076        4.0143499361
  C        23.9041209068       18.9710255555        3.3632554363
  C        22.8967007375       18.0221870515        3.6356526768
  C        23.1571937371       17.0407652050        4.6098709222
  C        24.3887625674       16.9863503290        5.2581610450
  C        21.6077005799       18.0163263746        2.8966033838
  C        21.5897230758       17.9645650376        1.4754172080
  C        22.7860898544       17.8195781207        0.7036548916
  C        34.3447818170       17.2173935935        5.8482462075
  C        35.6526635340       17.1375199190        5.1355630463
  C        35.8689910844       16.1677964541        4.1436516223
  C        37.0649891442       16.1431680441        3.4302819613
  C        38.0799157357       17.0864896018        3.6877565883
  C        37.8685400448       18.0305360851        4.7113040078
  C        36.6705196501       18.0611059966        5.4215275548
  C        39.3439363262       17.0973939912        2.9130647135
  C        39.3503065565       17.1255639096        1.4908236983
  C        38.1488104530       17.2536377805        0.7247629622
  C        20.3346428296       17.9679656880        0.7828394960
  C        20.3904929683       18.0287241546        3.5947048100
  C        34.4866407375       17.2415656217       10.1814513777
  C        35.7887276611       17.1733528054       10.9054761512
  C        36.0069173866       16.1827929861       11.8748540394
  C        37.1900716247       16.1676376349       12.6077862486
  C        38.1837860758       17.1418130036       12.3905729825
  C        37.9723570892       18.1077626434       11.3893854213
  C        36.7866299694       18.1283284386       10.6594149604
  C        39.4263673532       17.1612425031       13.1934899488
  C        39.3927170809       17.1590393191       14.6143279663
  C        38.1693485681       17.2672711339       15.3480354620
  C        35.0890925271       26.6762295471       15.3134266484
  C        35.1381361718       26.7017577365       12.5041311497
  C        26.5186115969       17.8203975493       10.3081956887
  C        25.1933868192       17.8530665236       10.9949610930
  C        24.9229104914       18.8662138358       11.9274466052
  C        23.7123900439       18.8820795489       12.6120109551
  C        22.7443569175       17.8828678357       12.3894799592
  C        23.0063101714       16.8959482097       11.4221270773
  C        24.2188705136       16.8791249852       10.7332973430
  C        21.4915739923       17.8635792637       13.1786132216
  C        21.5312445474       17.8828706306       14.5995429828
  C        22.7582275684       17.7804523809       15.3283673793
  C        14.0386988567       17.8224670048       10.2952297948
  C        15.3307785666       17.8643140975       11.0378913191
  C        15.5865751518       18.8692452254       11.9834647427
  C        16.7891201396       18.8815515753       12.6862399230
  C        17.7667605625       17.8911990189       12.4643628015
  C        17.5129028156       16.9059269940       11.4918156886
  C        16.3104215662       16.8895064212       10.7900996477
  C        19.0381281387       17.8776575171       13.2249077364
  C        19.0511411251       17.9041150972       14.6460350327
  C        17.8522194986       17.8247492470       15.4217456579
  C        46.8061003273       17.2230855400       10.1642537966
  C        45.5215108199       17.1718623168       10.9223259882
  C        45.3191121229       16.2015324184       11.9160113449
  C        44.1429290150       16.1918562793       12.6619391577
  C        43.1372678232       17.1521973848       12.4362757258
  C        43.3383919232       18.1043074359       11.4180297213
  C        44.5154746623       18.1182965421       10.6737524340
  C        41.8819066232       17.1627686630       13.2233088747
  C        41.8767606099       17.1506446727       14.6455817179
  C        43.0795552254       17.2396770530       15.4142110184
  C        20.3055644042       17.9268161811       15.3388475703
  C        20.2528423414       17.8407517775       12.5277062607
  C        46.7803368323       17.2273937866        5.8942057897
  C        45.4677677071       17.1125524911        5.1933846528
  C        45.2429748469       16.1129181961        4.2345045266
  C        44.0480562119       16.0814169450        3.5188761860
  C        43.0463745311       17.0460733474        3.7442194447
  C        43.2597397240       18.0121275711        4.7452905714
  C        44.4561062747       18.0502570868        5.4558110850
  C        41.8003721487       17.0720221908        2.9438519534
  C        41.8349667099       17.1032358033        1.5226896921
  C        43.0595400693       17.2152836437        0.7908537484
  C        46.1530936060       26.6371849356        0.7264425866
  C        46.1628357956       26.6563570609        3.5360697749
  C        14.0532289029       17.8404066207        5.7143916150
  C        15.3837072221       17.9361951233        5.0404817215
  C        15.6585820051       18.9653595261        4.1267827805
  C        16.8929500524       19.0208601088        3.4819074613
  C        17.8834599159       18.0467798099        3.7221941209
  C        17.6168127624       17.0490813519        4.6778686734
  C        16.3845572102       16.9933884585        5.3273731001
  C        19.1484271815       18.0284816629        2.9437557617
  C        19.1079512718       17.9809604583        1.5224818590
  C        17.8796691789       17.8591811438        0.7974457398
  C        28.8101223341       14.0941958606       10.3899075605
  C        28.2002671138       12.9162194339       11.0770915648
  C        28.9353920096       12.1607611013       12.0026241345
  C        28.3419637286       11.0819785439       12.6540059533
  C        26.9989492039       10.7340099113       12.4044334873
  C        26.2845117972       11.4703216405       11.4424265702
  C        26.8761398105       12.5491675545       10.7891042124
  C        26.3378253973        9.6505933795       13.1694112512
  C        26.3435476746        9.6722736907       14.5907314621
  C        26.8581303774       10.7829474769       15.3317746963
  C        32.1658365684       21.2567630430       10.1825274250
  C        32.7446162566       22.4396751344       10.8850627281
  C        31.9887782370       23.1159593949       11.8547367427
  C        32.5503507020       24.1655283024       12.5757703999
  C        33.8824148342       24.5633003949       12.3497463496
  C        34.6185566402       23.9073838593       11.3452600160
  C        34.0594423570       22.8538981638       10.6251677591
  C        34.5098887687       25.6349334059       13.1553649937
  C        34.4956664900       25.5994736613       14.5767574527
  C        33.9816900676       24.4813381155       15.3063176620
  C        25.7401415979        8.5946678110       15.3155333752
  C        25.6910678010        8.6024825577       12.5017236099
  C        32.0837454719       21.1680633711        5.8402592595
  C        32.6512819300       22.3331123904        5.1021518072
  C        31.9093050055       22.9949110543        4.1106942398
  C        32.4754126357       24.0475104289        3.3936290207
  C        33.7966239414       24.4686384348        3.6470701021
  C        34.5187740686       23.8198890656        4.6673742849
  C        33.9582999144       22.7644391080        5.3811136007
  C        34.4313882271       25.5638358882        2.8761442483
  C        34.4538090389       25.5639754807        1.4539899798
  C        33.9616568236       24.4645198227        0.6826282392
  C        40.6026982686       17.1096302580        0.7906372321
  C        40.5640739287       17.0877334190        3.6005565071
  C        28.7542336498       14.1247656614        5.7822099943
  C        28.1753856838       12.9594952522        5.0469952944
  C        28.9180418519       12.2708898309        4.0756094615
  C        28.3557017285       11.1917194720        3.3948422052
  C        27.0334945596       10.7759350565        3.6553186881
  C        26.3100135829       11.4531661416        4.6552185357
  C        26.8711612358       12.5284685936        5.3403349218
  C        26.3967451575        9.6744357508        2.8908031297
  C        26.3752509476        9.6846831326        1.4683984024
  C        26.8708693409       10.7901825068        0.7076208200
  C        18.1357167567        3.1812538636       10.3171436429
  C        17.4068068823        4.2786290873       11.0157917895
  C        16.3911449714        4.0006204564       11.9435014907
  C        15.7438084556        5.0408247806       12.6070058490
  C        16.0960447141        6.3844615825       12.3671840833
  C        17.0853507053        6.6536516059       11.4032400956
  C        17.7340541532        5.6160742226       10.7381767165
  C        15.4719529421        7.4923069270       13.1302138844
  C        15.4870820649        7.4914896083       14.5519322680
  C        16.1885857563        6.4978556597       15.3051273382
  C        42.9457732744       31.8595850704       10.0728785445
  C        43.6460729872       30.7718401387       10.8168422035
  C        44.5912228503       31.0931450438       11.8032842506
  C        45.1968620573       30.0875702219       12.5509776656
  C        44.8707228531       28.7344775554       12.3358391584
  C        43.9453737799       28.4201744264       11.3221654247
  C        43.3366203019       29.4253329835       10.5740873783
  C        45.4882304139       27.6551342924       13.1390320426
  C        45.4923547972       27.6807317461       14.5607378105
  C        44.8052650914       28.6887506789       15.3074007488
  C        14.8580528703        8.5639208348       15.2643304408
  C        14.8768314337        8.5642067302       12.4516622023
  C        42.9465188655       31.9618626720        5.8090505685
  C        43.6919067292       30.8857150964        5.0956852681
  C        44.6560356531       31.1916263205        4.1229311185
  C        45.2775855418       30.1720274991        3.4052490284
  C        44.9543190262       28.8216697637        3.6433472282
  C        44.0214425054       28.5240212190        4.6546938532
  C        43.3931458682       29.5407889176        5.3668388381
  C        45.5632470920       27.7242336627        2.8580620019
  C        45.5331901715       27.7173766435        1.4367568960
  C        44.8266782305       28.7074669155        0.6837893511
  C        35.0681333881       26.6580902345        0.7585616592
  C        35.0424822012       26.6170226628        3.5691568099
  C        18.1489165119        3.2472859069        5.7066356092
  C        17.4303876194        4.3441410803        4.9975488956
  C        16.4154478835        4.0529212996        4.0736340305
  C        15.7672602215        5.0835922234        3.3982292201
  C        16.1217763506        6.4288284939        3.6212519721
  C        17.1128753528        6.7121490906        4.5788274256
  C        17.7604569212        5.6831957582        5.2586144646
  C        15.4914381025        7.5245833328        2.8487736309
  C        15.4975978827        7.5080636307        1.4276432751
  C        16.1946283222        6.5065509709        0.6809434165
  H        10.6726054497       12.4654676113        3.9046302860
  H        11.6952463242       10.5508545086        2.6627544308
  H        15.3923131308       11.1696180708        4.7719639939
  H        14.3516129150       13.0722629862        6.0169556430
  H        13.3775589472       11.6318983844        1.2015520826
  H        50.3229843679       22.7482801287        3.9866542272
  H        49.3199100329       24.6228394338        2.6807559055
  H        45.6427276229       24.1617232998        4.8642347871
  H        46.6636218617       22.2906072111        6.1723690535
  H        47.6299684786       23.5760060741        1.2463898530
  H        14.8726391248        8.5886058627        4.6086807083
  H        50.2866994934       22.7024981496       12.0604383484
  H        49.2687120744       24.5753140673       13.3605391893
  H        45.6101642502       24.1091641460       11.1460627997
  H        46.6523967768       22.2538383763        9.8316751314
  H        47.6076037528       23.5517844237       14.7970320579
  H        40.6742082753       17.1571965041       11.4491859947
  H        48.6870409588       14.0952837625        7.7999815543
  H        10.6821598110       12.4665210537       12.0935647317
  H        11.6912368746       10.5249698020       13.2972715990
  H        15.3950791394       11.1609809939       11.2061445200
  H        14.3657511719       13.0888097024        9.9907982306
  H        13.3777846192       11.6232310473       14.7533138110
  H        47.9301107157       14.2190060683        9.7109474825
  H        47.7801526906       14.3744289592        6.4951468863
  H        49.0853720537       18.5530874851       10.8676361482
  H        10.4162455726       14.1344059586        7.9985634191
  H        24.5134600048        3.0217808350        3.9437039983
  H        25.6802994220        4.8694769520        2.7292282272
  H        23.2998950060        7.7558079740        4.8504923253
  H        22.1507113551        5.8982143671        6.0670733591
  H        23.8687812561        5.7794556192        1.2916121167
  H        36.3412217651       32.1928041895        4.0032811903
  H        35.1877581439       30.3748441170        2.7421838313
  H        37.4654082820       27.4390764676        4.9089373887
  H        38.5983016202       29.2702679376        6.1805781503
  H        36.9685883948       29.4668950049        1.3195003818
  H        25.8222871727        8.6005787836        4.6614588864
  H        36.4625077273       32.2663576233       12.1115904026
  H        35.3363210468       30.4673731524       13.4203266364
  H        37.5170287230       27.4991607768       11.1969715576
  H        38.6180233051       29.3105172497        9.8750895897
  H        37.0038080520       29.4970357925       14.8719810716
  H        46.1090628094       26.5874822158       11.3857461877
  H        44.6683150743       35.1161980990        7.8139782049
  H        24.4329950984        3.0310484502       12.0920160418
  H        25.5708359404        4.8613773919       13.3478960956
  H        23.1810134136        7.7652083667       11.2613308834
  H        22.0553686403        5.9227990505       10.0044191050
  H        23.8257115707        5.7798436879       14.8443419739
  H        44.9538259798       34.3904055201        9.6951217370
  H        44.9013673736       34.2066806573        6.4906678004
  H        40.6669259438       33.2101588644       10.8534465160
  H        23.1512484142        1.9579082974        8.0062668097
  H        25.9097732937       19.6588080903        3.8068961254
  H        23.7069979409       19.7555249063        2.6355683910
  H        22.3935160650       16.2972319174        4.8288059051
  H        24.5967449921       16.2176505565        5.9982611750
  H        23.7323327386       17.7086798384        1.2248144754
  H        35.0835894468       15.4436041334        3.9401740059
  H        37.2276879711       15.3853065983        2.6670590285
  H        38.6430938402       18.7659777103        4.9189192331
  H        36.4934678942       18.8077898225        6.1921915074
  H        37.2042991095       17.3717649317        1.2482165277
  H        20.4115020750       18.0840547911        4.6818261690
  H        35.2288712183       15.4434595685       12.0503300972
  H        37.3585638730       15.3973093052       13.3571646333
  H        38.7333310023       18.8663327487       11.2180011122
  H        36.6011231272       18.8922675392        9.9081184834
  H        37.2411685060       17.3938313351       14.7981319141
  H        35.1187267638       26.7320568303       11.4164031680
  H        28.4564186302       21.0878905646        8.4491569642
  H        25.6803223062       19.6280735481       12.0984784035
  H        23.5012443605       19.6704554949       13.3312840573
  H        22.2653109971       16.1191992886       11.2443356269
  H        24.4404302507       16.1043626141       10.0027997923
  H        23.6822589699       17.6395614959       14.7754193823
  H        29.0843290884       21.7432919220        9.7720896071
  H        28.8854960533       21.7611931676        6.5092217387
  H        32.1263716289       18.5030283720       11.0191419441
  H        27.3448871377       19.0699425581        8.0424598630
  H        14.8343763696       19.6372339184       12.1489190632
  H        16.9888589248       19.6687950819       13.4099637201
  H        18.2587497229       16.1336855933       11.3152025136
  H        16.1014803679       16.1191015103       10.0517783880
  H        16.9036567419       17.7020381677       14.9069780010
  H        46.1004339358       15.4669101359       12.0964653736
  H        43.9874372415       15.4292962505       13.4219640627
  H        42.5716545134       18.8552075362       11.2388115371
  H        44.6851504152       18.8676583083        9.9040918026
  H        44.0251255122       17.3596446276       14.8929492865
  H        20.2332141176       17.8517894705       11.4394588062
  H        46.0213532680       15.3761954465        4.0489747172
  H        43.8796945235       15.3072466069        2.7733680204
  H        42.4922889270       18.7613616546        4.9284015054
  H        44.6412094416       18.8173777126        6.2037698629
  H        43.9899297069       17.3153375617        1.3421841128
  H        46.2000419392       26.6830711196        4.6234991259
  H        52.7414281754       21.0628127897        8.1946733281
  H        14.8936133570       19.7148196102        3.9357128939
  H        17.1003372653       19.8201510992        2.7735069062
  H        18.3711788639       16.2899384439        4.8744368656
  H        16.1666409998       16.2080394083        6.0472063340
  H        16.9520239264       17.7633929587        1.3535239901
  H        52.3227711682       21.6734922384        6.2941469253
  H        52.0139099682       21.7027121860        9.4956064062
  H        49.0669061182       18.6066877889        5.2039847539
  H        13.2480967548       19.0159292656        7.9797957409
  H        29.9700777987       12.4344013037       12.1969707061
  H        28.9141421374       10.4955797791       13.3697616324
  H        25.2463056521       11.2129906333       11.2426943153
  H        26.3221550726       13.1385743392       10.0624668455
  H        27.2157820392       11.6514536699       14.7870150151
  H        30.9691527441       22.7878224421       12.0438884578
  H        31.9611329977       24.6882722287       13.3260549708
  H        35.6492994862       24.2059512147       11.1653755458
  H        34.6343158025       22.3193213919        9.8725706761
  H        33.6276705521       23.6161626893       14.7532576040
  H        25.7068107327        8.5864196678       11.4133593223
  H        30.8900956141       22.6697983609        3.9126467942
  H        31.8919581556       24.5622466142        2.6332810273
  H        35.5410891665       24.1321635934        4.8703520414
  H        34.5229186091       22.2451844514        6.1517759051
  H        33.5931719189       23.5851139239        1.2026679829
  H        40.5504539027       17.0398457942        4.6878878885
  H        32.5130694214       14.1561772678        8.2558067570
  H        29.9370718421       12.5931247207        3.8724884879
  H        28.9416917766       10.6537280016        2.6527176034
  H        25.2869518671       11.1480391948        4.8654481274
  H        26.3073261610       13.0632917455        6.1007951095
  H        27.2362918255       11.6653783533        1.2365031657
  H        33.2794914698       14.2062184534        6.4217104193
  H        33.4088386972       14.4001537017        9.6060293607
  H        32.2463003752       18.6990973865        5.3035467821
  H        30.2250835033       14.1939529965        8.0714849807
  H        16.1188135160        2.9642174584       12.1300440052
  H        14.9544273555        4.8217213463       13.3228253178
  H        17.3680929176        7.6864267892       11.2100266005
  H        18.5160987248        5.8185647873       10.0102903945
  H        16.7554063122        5.7406936549       14.7716552216
  H        44.8273065916       32.1402377077       11.9777031156
  H        45.9364701390       30.3413448831       13.3071696338
  H        43.6830470983       27.3780710534       11.1516882408
  H        42.6004347863       29.1900151347        9.8090009106
  H        44.2298596528       29.4364994253       14.7691332600
  H        14.8531815183        8.5475736800       11.3634358650
  H        44.8991919062       32.2343236372        3.9311021103
  H        46.0241285807       30.4133163825        2.6516704883
  H        43.7650291188       27.4842530425        4.8467558530
  H        42.6471474409       29.3179643093        6.1257666373
  H        44.2682264443       29.4703841270        1.2183813994
  H        34.9981067714       26.6223270334        4.6566877200
  H        36.6052359380       35.1345070188        8.1804847829
  H        16.1444352782        3.0133649309        3.9036882474
  H        14.9751730230        4.8568294752        2.6878587859
  H        17.3963366774        7.7475981347        4.7559278587
  H        18.5431975227        5.8936691380        5.9835179386
  H        16.7661170608        5.7563529562        1.2193831777
  H        36.2792277769       34.4825034389        6.2730534013
  H        36.3815431939       34.2090065410        9.4989970142
  H        40.5792078698       33.2026208536        5.1539189724
  H        17.4716210611        1.9482385082        7.9740292997
  H        31.0418773084       16.1914907015        4.0828839894
  H        31.2006044914       15.6771599210       12.5467176404
  H        28.1922996541       18.7940343985       14.5560566854
  H        29.5458713257       15.3200505737       14.4953764702
  H        31.4574660776       19.8535710808        2.2281519231
  H        32.8014388342       15.7947415441        2.0165009954
  H        28.9724847389       16.5965420547        1.2664739983
  H        32.4508972389       18.4007506758       15.0386199725
  H        18.8535799938        0.8690259657       12.3354416281
  H        40.5279469692       35.2290197727        3.9519042804
  H        42.3247262141       34.4194490769        3.5902973300
  H        22.0875836092        0.6917902310       12.3516362684
  H        11.5966205068       18.7133142704       12.3820254938
  H        52.2652937761       18.4310391670        3.6768559125
  H        49.2552752632       16.4767938778        3.5841175219
  H        10.1505275279       15.7983455550       12.2925559769
  H        50.8504891007       17.6926193299        3.9541922859
  H        10.0464413012       17.3949144308       12.0518253836
  H        20.2148535933        0.0022703229       12.0419885186
  H        39.1837302252       36.1244422181        3.6861758376
 Ni        31.0329369093       17.3718164813        3.0751546009
 Ni        31.2845836612       16.2992047952        0.0045188853
 Ni        30.1361960621       18.7294220403        0.2561453683
 Ni        30.2681799616       17.6722497990       13.3227548588
  O        10.6499592180       14.3651382205        5.4858433396
  O        12.6132132485       14.6575778161        6.5838064681
  O        49.1476760542       16.8457840866        7.9895015748
  O        50.3503585245       20.9357501755        5.6478612188
  O        48.3485813036       20.5932895319        6.6658290272
  O        11.0515329132       17.0539861930        6.5005928813
  O        50.3206642696       20.8817017930       10.4068520537
  O        48.3466070193       20.5867068049        9.3269894625
  O        49.5439994766       18.2483721666       10.0680057045
  O        12.3593399654       18.6246127864        7.9992026382
  O        48.6931984939       14.1487126967        6.7512410829
  O         8.2097934054       14.2105303420        9.3225859528
  O        10.7353258172       14.5066918151       10.6642665266
  O        12.5717563373       14.5828452007        9.3283447942
  O        22.8457551286        2.0442273268        5.4870508983
  O        21.6081957068        3.5942101185        6.5874050695
  O        42.0582582692       34.1375896212        7.9787589458
  O        37.9812650137       33.1377533803        5.5726694209
  O        39.2173562795       31.5756339717        6.6658254878
  O        20.3087732480        1.0402876749        6.5024057924
  O        38.0255059915       33.1878199322       10.4147195896
  O        39.2179377491       31.5828948567        9.3280596478
  O        40.6523780517       33.7696120087       10.0599799295
  O        18.2560713630        1.3767375083        7.9967105189
  O        44.6222081985       35.1005650524        6.7587576919
  O        24.2053943406        0.0000036038        9.3206926148
  O        22.7532106689        2.0573044556       10.5840518008
  O        21.6256586354        3.5973354801        9.3452095830
  O        27.6305991280       18.6815206899        5.4017539492
  O        26.7787988542       16.9309786254        6.5861009709
  O        30.6714567508       19.4078250985        8.1378154603
  O        33.4589678005       16.3345392765        5.5713835519
  O        34.1803628041       18.1851498997        6.6649742502
  O        29.5710617768       17.0777683834        6.5917520068
  O        33.6280415126       16.3291165422       10.4078281998
  O        34.3139614694       18.2448332454        9.4027430666
  O        31.7211010517       18.3091530457       10.1574588853
  O        30.3239412527       15.1602359186        8.0843069710
  O        28.5116367621       20.9608048397        6.9116364626
  O        28.4736675290       21.0365461034        9.4921819538
  O        27.3790769958       18.6836088072       10.6601774125
  O        26.6852466658       16.9180796305        9.4076785889
  O        13.1451086003       18.6934531052       10.5867522381
  O        13.9172358591       16.9158937155        9.4043939742
  O        50.5962583786       19.3501355207        8.0191586009
  O        47.6820184459       16.3277822958       10.4179491772
  O        46.9509288907       18.1761009974        9.3251653101
  O        11.0699901980       17.0152752608        9.4893211610
  O        47.6734413173       16.3357932225        5.6525431401
  O        46.9261086734       18.2358484225        6.6638672561
  O        49.5688670783       18.3176331980        5.9820313882
  O        10.3186589149       15.1002325913        7.9969950924
  O        52.6707279804       21.0279006544        9.2417446506
  O        12.1468909772       20.8913323979        6.6732482225
  O        13.1104659872       18.6138854640        5.3255604855
  O        13.9594790810       16.9879440067        6.6639854814
  O        29.9942654402       14.4441938889       10.7328319192
  O        28.0900424937       14.6537338381        9.4934640983
  O        32.1024204435       16.9091985761        8.0647057067
  O        30.9541417684       20.9608893672       10.4175708612
  O        32.9567097670       20.6006334056        9.4102320975
  O        29.5698812871       17.0712772355        9.5812906848
  O        30.8760167585       20.8163065528        5.5770915033
  O        32.8600261530       20.5771963750        6.6670314989
  O        31.5044528850       18.2498080068        5.7376110478
  O        28.2277172866       18.6697506925        8.0926420419
  O        32.4921376950       14.2164515014        9.3298322557
  O        32.3949433365       14.2262615357        6.8219501834
  O        29.9024735603       14.5635408347        5.4201273058
  O        28.0497692939       14.5900570273        6.7453063478
  O        17.8892609815        1.9667921377       10.6627286422
  O        18.9565060718        3.5271441971        9.4078360105
  O        39.1686447879       34.1388623418        7.9970333935
  O        43.2801742469       33.0589470934       10.3316682425
  O        42.0343334620       31.5065175765        9.2416003863
  O        20.3181736146        1.0374509608        9.4795410783
  O        43.2761205273       33.1827804288        5.5749404020
  O        42.0052145006       31.5842126685        6.5829676247
  O        40.5791609814       33.7755268915        5.9358733053
  O        22.3676971945        1.3852243234        7.9978144118
  O        36.6727903533       35.0999427496        9.2331213315
  O        16.4458455505        0.0644702542        6.6682497267
  O        17.9366152063        2.0436233731        5.3264321275
  O        18.9195115132        3.5931710278        6.6659946150
  O        29.7839835065       18.8969834410       11.9873132045
  O        31.3445391422       16.4763766507       11.9997428043
  O        32.3250048062       16.5625395620        1.6631829958
  O        29.8588731062       16.9936698064        1.3269323203
  O        30.3688099303       15.8255372058       14.4007376298
  O        31.5583446713       18.0182477716       14.9902985936
  O        30.8361499019       19.1254431565        2.0724575891
  O        29.1490328267       18.6888657217       14.6652899596
  O        39.4568039588       35.2438703501        4.0019914934
  O        19.1414146631        0.0046083392       11.9904822904
  O        41.9695946914       35.1728152062        4.0871461113
  O        21.6911292885       -0.0695675713       11.8958923489
  O        51.3655545980       18.6142659371        4.0053337791
  O        10.7505977866       18.7471701981       11.9048235365
  O        50.0794637657       16.4127574441        4.0917571079
  O         9.5245548103       16.4831705586       11.9911269017
 Zr         9.2975880414       16.0530082668        6.1823890322
 Zr        49.8371569409       16.0067045636        9.7463324269
 Zr        22.0735468543        0.0310372545        6.1884892947
 Zr        42.4610362721       35.1541202017        9.8009980093
 Zr        29.5803886350       19.1968406951        6.4754003760
 Zr        29.5671529400       19.1022396105       10.1118420675
 Zr        11.0380826537       19.0519301631        9.8271407256
 Zr        11.0454981789       19.1546511698        6.2500627553
 Zr        31.3459207114       16.1079779995        9.9107353253
 Zr        31.3478744298       16.0396604773        6.3056301609
 Zr        18.6015601838       -0.0001002938        9.7630369099
 Zr        18.5070690724       -0.0066345583        6.2138113190
 Zr        12.3035283771       16.3237723956        7.9890859483
 Zr        48.6172868721       18.8330758002        8.0096374587
 Zr        20.3168961009        2.4754541375        7.9902956693
 Zr        40.6437637256       32.6877609574        7.9780233520
 Zr        28.3351222261       16.3592624612        8.0808632761
 Zr        32.6258400318       18.8617681008        8.1376038406
