     571
 i =      190, E =     -4761.5836375291
  C        11.8585016739       14.0538172619        5.7415823309
  C        12.4560808564       12.8906453773        5.0233495401
  C        11.7046212347       12.1723009434        4.0810921293
  C        12.2809113239       11.1100655358        3.3886777684
  C        13.6211888402       10.7396350487        3.6170373254
  C        14.3540562065       11.4425090260        4.5912313879
  C        13.7812406418       12.5075430413        5.2827407702
  C        14.2608168881        9.6490363659        2.8436224656
  C        14.2566618270        9.6571749845        1.4219084019
  C        13.7437809338       10.7594219374        0.6679788466
  C        49.1267895907       21.2331661819        5.8796000266
  C        48.5502745280       22.4010795593        5.1526365672
  C        49.3002280196       23.0683221945        4.1714766942
  C        48.7332422964       24.1073931955        3.4382881742
  C        47.4027798749       24.5093153512        3.6671430285
  C        46.6719448061       23.8604617560        4.6807965782
  C        47.2343555254       22.8155019876        5.4100441527
  C        46.7725232646       25.5869512491        2.8699616638
  C        46.7619053989       25.5575599541        1.4480693241
  C        47.2616677638       24.4425281867        0.7045802855
  C        14.8606544501        8.5708363892        0.7086728044
  C        14.8912039674        8.5968368695        3.5202580289
  C        49.1131046311       21.2035021115       10.1452358222
  C        48.5278982626       22.3647582926       10.8723908181
  C        49.2669490989       23.0253232757       11.8655879665
  C        48.6905520659       24.0597895168       12.5970599566
  C        47.3602292153       24.4568721801       12.3585567269
  C        46.6400141913       23.8120743447       11.3347789773
  C        47.2135758197       22.7761591810       10.6030641727
  C        46.7217698310       25.5317411040       13.1495640917
  C        46.7339954733       25.5283628418       14.5713837454
  C        47.2493012779       24.4292013613       15.3277334121
  C        40.6295825850       17.1423206248       15.3288351789
  C        40.6577861854       17.1888979380       12.5187132150
  C        11.8828291576       14.0867512662       10.2852285958
  C        12.4722869877       12.9107149494       10.9894474291
  C        11.7150722070       12.1781292890       11.9162400301
  C        12.2816337269       11.0956825552       12.5847415485
  C        13.6201557761       10.7213269970       12.3523074111
  C        14.3577234285       11.4361433905       11.3906284847
  C        13.7923047081       12.5172989968       10.7178722587
  C        14.2538598139        9.6246739600       13.1227937248
  C        14.2530070520        9.6448685496       14.5446474495
  C        13.7433230647       10.7539140934       15.2917189015
  C        22.5113773406        3.2448160372        5.7534540200
  C        23.2251553558        4.3522728519        5.0540727199
  C        24.2241311563        4.0749150449        4.1093537555
  C        24.8494604270        5.1161677753        3.4279126155
  C        24.4914223011        6.4570712133        3.6712176886
  C        23.5205220552        6.7261627232        4.6529839369
  C        22.8907786586        5.6866075028        5.3327523798
  C        25.0943254971        7.5650276950        2.8947367910
  C        25.0649988605        7.5574159495        1.4729948552
  C        24.3634544943        6.5563907232        0.7285502658
  C        38.2954763353       31.9264360436        5.8526002672
  C        37.5499132857       30.8376061018        5.1560940374
  C        36.5878266713       31.1425358743        4.1800096386
  C        35.9562244222       30.1237143022        3.4717044095
  C        36.2686468027       28.7709543878        3.7146613305
  C        37.1978352769       28.4741607318        4.7306070437
  C        37.8341929342       29.4919049533        5.4380745165
  C        35.6629780092       27.6820826094        2.9125832039
  C        35.7066673789       27.7010206596        1.4882891691
  C        36.4196310271       28.7024667284        0.7595729947
  C        25.6854412213        8.6275772514        0.7510879198
  C        25.6901965946        8.6418087083        3.5637330450
  C        38.3306592787       31.9616180244       10.1602832377
  C        37.6147115808       30.8916274084       10.9094623533
  C        36.6919259145       31.2032671341       11.9205299036
  C        36.0841067952       30.1877923776       12.6557296986
  C        36.3819221006       28.8329457128       12.4037024150
  C        37.2843686373       28.5319084325       11.3640307281
  C        37.8954059371       29.5437332910       10.6309676397
  C        35.7687730781       27.7351541038       13.1841075697
  C        35.7604626839       27.7285478029       14.6084430460
  C        36.4441689420       28.7167136318       15.3814227804
  C        46.1360855617       26.6210710733       15.2815419434
  C        46.0872616833       26.5798100191       12.4735908564
  C        22.4592355180        3.2551553522       10.2575901531
  C        23.1508088819        4.3650004542       10.9821322766
  C        24.1529336962        4.0803092516       11.9230439668
  C        24.7783774156        5.1114464446       12.6199172176
  C        24.4215081332        6.4563889729       12.3975594942
  C        23.4420328039        6.7344937383       11.4255194038
  C        22.8119068379        5.7035153912       10.7295140734
  C        25.0505004707        7.5559166555       13.1709940624
  C        25.0427574173        7.5521317588       14.5937706818
  C        24.3508508454        6.5552195317       15.3516325694
  C        26.6834074047       17.8759605246        5.7295457922
  C        25.3826801897       17.9618182715        5.0001161970
  C        25.1471214066       18.9314755046        4.0123220930
  C        23.9191513591       18.9783667818        3.3513198212
  C        22.8919892486       18.0569914758        3.6482246986
  C        23.1277437546       17.1125744450        4.6657991682
  C        24.3516365061       17.0632394088        5.3279865597
  C        21.6093096480       18.0425742265        2.8983476999
  C        21.5982501489       17.9907987995        1.4761008029
  C        22.7969289460       17.8427625258        0.7089886070
  C        34.4188769330       17.2261798983        5.9095873677
  C        35.7047743690       17.1634831829        5.1663682368
  C        35.8984640895       16.2105130973        4.1525448822
  C        37.0815624912       16.1944114772        3.4196687158
  C        38.1076623325       17.1253809776        3.6819497633
  C        37.9162166876       18.0539080759        4.7240925012
  C        36.7299378885       18.0792715995        5.4516639308
  C        39.3640065945       17.1334725159        2.9016447110
  C        39.3642367365       17.1555513448        1.4780425608
  C        38.1635862941       17.2966931392        0.7168751372
  C        20.3462032728       17.9951125092        0.7766130898
  C        20.3869593629       18.0485509888        3.5892202628
  C        34.4825570634       17.2457243134       10.1820417096
  C        35.7824398411       17.1765759983       10.9002180072
  C        35.9848104049       16.2143543167       11.9021268158
  C        37.1689395829       16.2022120155       12.6317249969
  C        38.1817842444       17.1492789186       12.3796546076
  C        37.9856971142       18.0831640123       11.3439672288
  C        36.7985297146       18.1030002445       10.6181902768
  C        39.4241438203       17.1730060613       13.1781490521
  C        39.3952194257       17.1777298256       14.6011397586
  C        38.1780907983       17.3054499809       15.3385911158
  C        35.1227023948       26.6478517831       15.3046738680
  C        35.1873130899       26.6636582373       12.4937544664
  C        26.5636282134       17.8286820484       10.3237311437
  C        25.2474047981       17.8771730971       11.0237402548
  C        24.9844002734       18.8833580913       11.9662715844
  C        23.7667822668       18.9107470203       12.6400118074
  C        22.7818686085       17.9316694947       12.3975100089
  C        23.0387650044       16.9517695884       11.4210743137
  C        24.2569151830       16.9224264649       10.7443560490
  C        21.5214111617       17.9153147994       13.1764637916
  C        21.5533462348       17.9239610304       14.5981123025
  C        22.7754763358       17.8113481451       15.3333572460
  C        14.0443466845       17.8262275085       10.2927453310
  C        15.3445362655       17.8787819169       11.0276618771
  C        15.6019657999       18.8891182063       11.9675048781
  C        16.8086613592       18.9118493760       12.6645407934
  C        17.7923979673       17.9266255378       12.4444439212
  C        17.5376440942       16.9366710514       11.4764351681
  C        16.3306958583       16.9101124786       10.7802249130
  C        19.0649255460       17.9194915167       13.2085880100
  C        19.0725713133       17.9384713197       14.6313079038
  C        17.8707946898       17.8515612988       15.4018234137
  C        46.8058863774       17.2207232429       10.1612288343
  C        45.5199608483       17.1656668893       10.9111148220
  C        45.3165946613       16.1977273365       11.9072352875
  C        44.1382480580       16.1886963558       12.6482688275
  C        43.1315844975       17.1464583730       12.4144712380
  C        43.3329210213       18.0938776312       11.3918330992
  C        44.5123029245       18.1078721377       10.6527698336
  C        41.8790511495       17.1641104368       13.2012182068
  C        41.8795149557       17.1546524314       14.6250655343
  C        43.0838180697       17.2425081495       15.3881909265
  C        20.3237262344       17.9616604958       15.3314188425
  C        20.2847978946       17.8928431922       12.5184506013
  C        46.7818826140       17.2285390284        5.8923533883
  C        45.4750273003       17.1172498131        5.1869416337
  C        45.2583081995       16.1283962518        4.2145997516
  C        44.0682667946       16.1030665773        3.4922131455
  C        43.0621427247       17.0618745755        3.7249215245
  C        43.2675582654       18.0157503788        4.7401212815
  C        44.4594839702       18.0490186540        5.4564604688
  C        41.8189075229       17.0934449182        2.9251025279
  C        41.8488817904       17.1166878228        1.5019159067
  C        43.0692592729       17.2221963381        0.7663006067
  C        46.1539575395       26.6375196086        0.7263360476
  C        46.1621078909       26.6557860794        3.5360758545
  C        14.0525735164       17.8397162612        5.7125367070
  C        15.3822413113       17.9355287576        5.0331411714
  C        15.6522740235       18.9639036184        4.1169894607
  C        16.8849610913       19.0229117105        3.4685789606
  C        17.8799765102       18.0532024859        3.7079136704
  C        17.6173056060       17.0546642726        4.6641632863
  C        16.3864345255       16.9955026346        5.3169394350
  C        19.1479703974       18.0428059787        2.9326194644
  C        19.1155376021       18.0009808518        1.5102738459
  C        17.8917080337       17.8794255983        0.7780462491
  C        28.8048502401       14.0883841411       10.3884793248
  C        28.1888443960       12.9161673147       11.0724787060
  C        28.9066884249       12.1833432854       12.0294841338
  C        28.3053438508       11.1100374894       12.6813188650
  C        26.9720292792       10.7469130058       12.4021893182
  C        26.2767501028       11.4600875135       11.4090583688
  C        26.8759133347       12.5330969990       10.7542984826
  C        26.3009179464        9.6697355927       13.1648548154
  C        26.2867931041        9.6990689695       14.5858688857
  C        26.7869078004       10.8145850159       15.3296493657
  C        32.1776709153       21.2517060156       10.1474650394
  C        32.7743678437       22.4170651078       10.8596466657
  C        32.0310219581       23.0874807846       11.8441592626
  C        32.6033343682       24.1255384016       12.5720645728
  C        33.9350789757       24.5229361473       12.3392930356
  C        34.6593670216       23.8715807901       11.3223956605
  C        34.0899993610       22.8277960269       10.5952959940
  C        34.5640863896       25.5939931296       13.1445790462
  C        34.5435838399       25.5627113016       14.5678561390
  C        34.0410875119       24.4418983394       15.2977011447
  C        25.6787067184        8.6214822479       15.3063435781
  C        25.6656894789        8.6170485176       12.4932351530
  C        32.0877680030       21.1592639360        5.8279859763
  C        32.6449303460       22.3207931892        5.0898069051
  C        31.9285360081       22.9443630096        4.0537534796
  C        32.4985657877       23.9963680062        3.3400736724
  C        33.7980656778       24.4600133163        3.6386096297
  C        34.4895390467       23.8514055031        4.7059633806
  C        33.9277965214       22.7958203948        5.4151782092
  C        34.4415793178       25.5480269522        2.8698561694
  C        34.4799585425       25.5398230036        1.4455585548
  C        34.0115762249       24.4311856738        0.6753414845
  C        40.6137346330       17.1266339988        0.7738318251
  C        40.5855156646       17.1224171492        3.5849866865
  C        28.7186239292       14.1058864140        5.7798422883
  C        28.1146963929       12.9557261314        5.0490397539
  C        28.8519582749       12.2493898999        4.0855682032
  C        28.2728392320       11.1847776698        3.3995633944
  C        26.9404672130       10.7990252122        3.6509251344
  C        26.2217419555       11.4907632311        4.6442114781
  C        26.7988195677       12.5552871611        5.3328681809
  C        26.2994761060        9.7043865997        2.8836785313
  C        26.2887395773        9.7164755691        1.4619165959
  C        26.7860057188       10.8239769888        0.7055784827
  C        18.1352693661        3.1805808943       10.3171100585
  C        17.4058545719        4.2779712929       11.0157086124
  C        16.3908285159        3.9996169296       11.9439581332
  C        15.7430786223        5.0396051326       12.6074692920
  C        16.0943003545        6.3833833606       12.3671122519
  C        17.0827896287        6.6528798099       11.4024140006
  C        17.7318687435        5.6155234060       10.7373626555
  C        15.4701647498        7.4911908349       13.1301462043
  C        15.4857796684        7.4907375457       14.5518627863
  C        16.1873934449        6.4971814501       15.3050664544
  C        42.9457717735       31.8592775272       10.0728356532
  C        43.6459851076       30.7718082824       10.8168297510
  C        44.5911968837       31.0930903493       11.8032822436
  C        45.1967855229       30.0875206975       12.5509358230
  C        44.8708219456       28.7343536150       12.3356928238
  C        43.9452725816       28.4201256986       11.3221381897
  C        43.3364302624       29.4252705229       10.5741613425
  C        45.4884366084       27.6551491375       13.1388377808
  C        45.4930583881       27.6810511196       14.5606432218
  C        44.8057946633       28.6888220160       15.3072746826
  C        14.8569896644        8.5633478165       15.2642237224
  C        14.8747161201        8.5628861270       12.4515600470
  C        42.9464412846       31.9612688994        5.8090288299
  C        43.6917497234       30.8853927093        5.0957816260
  C        44.6557791355       31.1913181762        4.1228405821
  C        45.2772203258       30.1717446274        3.4051271100
  C        44.9541907410       28.8212896747        3.6433704924
  C        44.0213248970       28.5236883244        4.6548038250
  C        43.3929752063       29.5404169117        5.3669075065
  C        45.5631260078       27.7239993849        2.8580915305
  C        45.5337339076       27.7175478796        1.4366566575
  C        44.8271439703       28.7074779842        0.6837581687
  C        35.0925621440       26.6354386092        0.7505486227
  C        35.0490407883       26.6054416954        3.5622597314
  C        18.1483855469        3.2467135348        5.7067220361
  C        17.4295569431        4.3436828872        4.9975787233
  C        16.4150386962        4.0523533055        4.0733011544
  C        15.7667166705        5.0829565326        3.3978410457
  C        16.1206289364        6.4282684309        3.6212486107
  C        17.1111693453        6.7116889078        4.5793723446
  C        17.7588268522        5.6827972614        5.2591965024
  C        15.4903602117        7.5240379049        2.8487334193
  C        15.4966747142        7.5076224649        1.4275912206
  C        16.1935258807        6.5059823215        0.6808822611
  H        10.6727184474       12.4669938015        3.9036275420
  H        11.6947357242       10.5520631908        2.6616790275
  H        15.3908145021       11.1672802573        4.7735505687
  H        14.3503991301       13.0703614334        6.0187266590
  H        13.3766728521       11.6314998681        1.2013037866
  H        50.3228428300       22.7481256863        3.9865311285
  H        49.3195623654       24.6225075249        2.6804869465
  H        45.6424437561       24.1611721481        4.8640102215
  H        46.6632368301       22.2900703389        6.1719251169
  H        47.6298293683       23.5759575625        1.2461991506
  H        14.8709945147        8.5878005880        4.6085557442
  H        50.2868975970       22.7023093488       12.0607065755
  H        49.2687728322       24.5750151504       13.3608384840
  H        45.6106304342       24.1093122769       11.1456213802
  H        46.6527072974       22.2539987552        9.8315320421
  H        47.6076604157       23.5518661868       14.7969176460
  H        40.6681105079       17.1590694726       11.4308428869
  H        48.6866853469       14.0950687563        7.7998345516
  H        10.6818134466       12.4677034602       12.0940920065
  H        11.6899873471       10.5257932771       13.2979666947
  H        15.3928580883       11.1576045482       11.2040231300
  H        14.3641795948       13.0860299700        9.9884720710
  H        13.3764961967       11.6225171377       14.7530605147
  H        47.9297668573       14.2197397924        9.7103979514
  H        47.7802527513       14.3753058678        6.4946849294
  H        49.0830893273       18.5523160729       10.8669955387
  H        10.4155164658       14.1344983274        7.9984209342
  H        24.4879821999        3.0369297899        3.9189766395
  H        25.6240038645        4.9003892835        2.6951190403
  H        23.2357828144        7.7582221888        4.8469158719
  H        22.1187633235        5.8847497924        6.0722834010
  H        23.8041867473        5.7991671631        1.2702580781
  H        36.3602041121       32.1863998362        3.9771573501
  H        35.2129243203       30.3673949600        2.7157314370
  H        37.4491936415       27.4341423142        4.9284817367
  H        38.5778080165       29.2662005189        6.1988883267
  H        36.9799449864       29.4515004851        1.3113694300
  H        25.7259955583        8.6257382555        4.6515628408
  H        36.4709483413       32.2481375013       12.1264831183
  H        35.3622332056       30.4365427085       13.4304571531
  H        37.5288529846       27.4909826580       11.1629493303
  H        38.6137795334       29.3143409161        9.8476796082
  H        37.0243430297       29.4760447347       14.8649780033
  H        46.1082040395       26.5869292266       11.3855407104
  H        44.6678466699       35.1158447825        7.8139649872
  H        24.4322833352        3.0424186737       12.0897452108
  H        25.5594252858        4.8839578810       13.3422780833
  H        23.1548264906        7.7684966832       11.2456637457
  H        22.0396913927        5.9145228276        9.9933387830
  H        23.7812243699        5.7975624950       14.8212599150
  H        44.9524116008       34.3891908024        9.6944320197
  H        44.9002656880       34.2062096298        6.4905623739
  H        40.6649876318       33.2077501254       10.8523890894
  H        23.1505411264        1.9568956275        8.0052915324
  H        25.9346237173       19.6437713784        3.7753476462
  H        23.7430778995       19.7392374583        2.5939236972
  H        22.3503902536       16.3905424032        4.9073472463
  H        24.5373453538       16.3204719898        6.0997200977
  H        23.7408841473       17.7219982861        1.2319568827
  H        35.1087114944       15.4899217688        3.9519384073
  H        37.2307335906       15.4483240952        2.6422192184
  H        38.6987209895       18.7805673288        4.9325430237
  H        36.5687756590       18.8133354323        6.2376618177
  H        37.2238569123       17.4325327638        1.2441369733
  H        20.4006980336       18.1046184468        4.6764209787
  H        35.1935805386       15.4965601883       12.1056915761
  H        37.3253404387       15.4539366684       13.4055040567
  H        38.7605204268       18.8204927055       11.1444734560
  H        36.6261636610       18.8448677421        9.8421021618
  H        37.2495826845       17.4457048815       14.7928351732
  H        35.1703482863       26.6923072483       11.4058645882
  H        28.5129961573       21.0972836687        8.0130984340
  H        25.7473945276       19.6354710431       12.1541631420
  H        23.5638248865       19.6951686820       13.3658967975
  H        22.2876353744       16.1889190073       11.2265014894
  H        24.4699242917       16.1522253163       10.0069023556
  H        23.7023384729       17.6674571884       14.7862052515
  H        28.9947646652       21.7236798056        9.7692148202
  H        29.0731202297       21.7902134284        6.5963941024
  H        32.0794495660       18.5649510604       11.0019738722
  H        27.3989364840       19.0798591441        8.0750184487
  H        14.8465730765       19.6536636924       12.1348760404
  H        17.0050968224       19.7036511328       13.3842830413
  H        18.2855787828       16.1665982649       11.2988219081
  H        16.1237858497       16.1343316082       10.0467714976
  H        16.9247375963       17.7293737127       14.8823076117
  H        46.0991886827       15.4659118651       12.0931790610
  H        43.9810802459       15.4299446866       13.4116610760
  H        42.5650123710       18.8423472238       11.2077866100
  H        44.6838842823       18.8542873121        9.8807771634
  H        44.0279589891       17.3592183645       14.8639067107
  H        20.2705697315       17.9091866098       11.4301013270
  H        46.0393711077       15.3955750727        4.0252390162
  H        43.9053486048       15.3374106168        2.7368637664
  H        42.4970297753       18.7605795421        4.9279484361
  H        44.6391123053       18.8076471003        6.2142740773
  H        44.0022797959       17.3224636101        1.3130136271
  H        46.1985662738       26.6820262693        4.6235434821
  H        52.7406896004       21.0625220878        8.1946370526
  H        14.8847378189       19.7111059822        3.9272472270
  H        17.0875663723       19.8232113688        2.7599062390
  H        18.3740242908       16.2976147861        4.8598509340
  H        16.1727993539       16.2098804225        6.0378775636
  H        16.9615242153       17.7787740771        1.3291461698
  H        52.3207952507       21.6726497536        6.2947975522
  H        52.0119471764       21.7008911067        9.4956732773
  H        49.0658168371       18.6069387672        5.2048860725
  H        13.2472435743       19.0172033663        7.9788588761
  H        29.9321972354       12.4715691994       12.2498473879
  H        28.8633415171       10.5402351171       13.4211502845
  H        25.2466717636       11.1895960852       11.1861656168
  H        26.3357294869       13.1055440861       10.0042946906
  H        27.1460029082       11.6843186293       14.7878310250
  H        31.0099813043       22.7664671430       12.0361335628
  H        32.0219767675       24.6430465107       13.3319727321
  H        35.6898134740       24.1673120340       11.1361460915
  H        34.6583205984       22.2999523311        9.8329604791
  H        33.7044188808       23.5682255216       14.7471314171
  H        25.6965112945        8.5949959528       11.4053195266
  H        30.9283554142       22.5878716520        3.8157538981
  H        31.9339989273       24.4799988903        2.5459423813
  H        35.4938825290       24.1936969497        4.9465840379
  H        34.4735827856       22.3085169015        6.2193769592
  H        33.6544660534       23.5470277128        1.1949262745
  H        40.5752314452       17.0778827059        4.6724609154
  H        32.5254017966       14.1291062115        8.3561885088
  H        29.8828395868       12.5395921293        3.8959589579
  H        28.8521411185       10.6331437325        2.6623267129
  H        25.1914116336       11.2051249031        4.8460854070
  H        26.2394820896       13.1035288747        6.0871718865
  H        27.1427331122       11.7017617190        1.2362633477
  H        33.2877231249       14.1679273261        6.4313429563
  H        33.4067524906       14.4347117189        9.6753793071
  H        32.0565864684       18.5216973043        5.0713067206
  H        30.2301971679       14.1880496913        8.0698695367
  H        16.1193150323        2.9630549215       12.1308987331
  H        14.9541394132        4.8201159513       13.3236630117
  H        17.3644119262        7.6858300427       11.2085328099
  H        18.5130857625        5.8180902793       10.0086096654
  H        16.7537909485        5.7397032331       14.7715974778
  H        44.8272263433       32.1401728778       11.9777626480
  H        45.9362787650       30.3412158885       13.3072582978
  H        43.6826710479       27.3780633620       11.1518252995
  H        42.5998973033       29.1898808655        9.8094256027
  H        44.2298648056       29.4362214947       14.7690807155
  H        14.8504257681        8.5458141658       11.3633541086
  H        44.8988227324       32.2340152420        3.9308706036
  H        46.0235427072       30.4129284191        2.6513064703
  H        43.7647032800       27.4839533647        4.8467897163
  H        42.6467331234       29.3175266468        6.1255870333
  H        44.2681047654       29.4700205940        1.2182684481
  H        34.9944403954       26.6169191123        4.6493516302
  H        36.6048647977       35.1336761878        8.1808723735
  H        16.1445482179        3.0126949261        3.9030701504
  H        14.9748836007        4.8559653394        2.6872519146
  H        17.3938101000        7.7472620740        4.7570130563
  H        18.5409237885        5.8932118036        5.9848133528
  H        16.7647652907        5.7556154719        1.2193539132
  H        36.2790879468       34.4814639258        6.2734029144
  H        36.3816099729       34.2087289183        9.5000381069
  H        40.5775529474       33.2002793673        5.1549338696
  H        17.4707293605        1.9461378632        7.9739108504
  H        29.1162518354       19.4138648172       12.6120991473
  H        31.9123118155       15.9569544665        3.0929927136
  H        31.1908665258       15.5792361098       12.5783080236
  H        28.0766359712       18.1675422584       14.6197648991
  H        29.5659141261       15.3021687326       14.4754147506
  H        31.3207548329       20.1535458832        1.8897247176
  H        33.2157168931       16.7483847805        1.6638156476
  H        28.7955092858       16.5601452945        0.9131559909
  H        32.4076550740       18.4787787670       15.0331933676
  H        18.8535976232        0.8691898766       12.3350712279
  H        40.5278237544       35.2293059789        3.9524106864
  H        42.3219510159       34.4167200647        3.5924099128
  H        22.0881738154        0.6920874635       12.3510981094
  H        11.5970650295       18.7132504977       12.3818775214
  H        52.2648376285       18.4304511957        3.6771576172
  H        49.2544819135       16.4790652673        3.5857424638
  H        10.1502497954       15.7983253347       12.2927384685
  H        50.8497780099       17.6921987846        3.9546239558
  H        10.0459262198       17.3945341641       12.0520342938
  H        20.2144891573        0.0021229821       12.0421179577
  H        39.1833319846       36.1244049254        3.6866883259
 Ni        31.1140411546       17.8702637952        2.7479584708
 Ni        31.2360982306       16.3791761614       -0.0000670667
 Ni        29.8879647663       18.7714778978        0.2483156271
 Ni        30.2668944745       17.5251381346       13.2450532711
  O        10.6499198964       14.3651218031        5.4857729155
  O        12.6132614356       14.6577159423        6.5838684415
  O        49.1479256632       16.8459958190        7.9896067920
  O        50.3504038400       20.9356007175        5.6480324429
  O        48.3486157704       20.5933637723        6.6658877700
  O        11.0515437210       17.0538750586        6.5005819705
  O        50.3211352618       20.8816449415       10.4067362292
  O        48.3467916851       20.5868140133        9.3270413260
  O        49.5437015891       18.2484782774       10.0681552907
  O        12.3592631129       18.6243362814        7.9994580063
  O        48.6930868366       14.1486241070        6.7511714720
  O         8.2097612074       14.2103415647        9.3226032930
  O        10.7354325801       14.5066835568       10.6643263214
  O        12.5718945840       14.5829647502        9.3283286243
  O        22.8452663296        2.0445438087        5.4869088978
  O        21.6052743516        3.5925767830        6.5899020098
  O        42.0577121844       34.1367362827        7.9788624763
  O        37.9813938574       33.1363466408        5.5720943165
  O        39.2169103912       31.5750038680        6.6653743364
  O        20.3082189361        1.0391675106        6.5017276590
  O        38.0252649537       33.1868161803       10.4149943382
  O        39.2188345548       31.5836768728        9.3268184871
  O        40.6522169245       33.7690314601       10.0601339257
  O        18.2557238660        1.3753962380        7.9967391688
  O        44.6222263308       35.1004888527        6.7586659614
  O        24.2053807564        0.0000420464        9.3208681000
  O        22.7530526350        2.0579640437       10.5839180220
  O        21.6241799217        3.5960095676        9.3421456315
  O        27.6348780901       18.6881540876        5.4120146591
  O        26.7442775653       16.9987726020        6.6585219952
  O        30.6681502707       19.4101641049        8.0781484347
  O        33.5377768126       16.3318690769        5.6550357852
  O        34.2679913555       18.1817036288        6.7435964922
  O        29.5750963152       17.0633792694        6.5812339282
  O        33.6226515984       16.3312954254       10.4066279537
  O        34.3051578669       18.2499023595        9.4045893027
  O        31.6519322681       18.3169839499       10.1636906258
  O        30.3273055873       15.1546715965        8.0871930857
  O        28.5520174302       21.0331336556        6.9155094009
  O        28.5141854022       20.9597103959        9.4061003945
  O        27.4518404113       18.6778411677       10.6596055427
  O        26.6933504109       16.9288211024        9.4123096938
  O        13.1483176395       18.6930685116       10.5876986708
  O        13.9200909706       16.9163589972        9.4058741346
  O        50.5958750886       19.3500808217        8.0198672238
  O        47.6836205602       16.3270485065       10.4173103035
  O        46.9523457221       18.1759307659        9.3242364597
  O        11.0700516259       17.0152178293        9.4895510723
  O        47.6752359527       16.3354813303        5.6531186350
  O        46.9269939662       18.2357841281        6.6646739871
  O        49.5689625887       18.3176860086        5.9821356817
  O        10.3185908801       15.1003747884        7.9969848497
  O        52.6707268613       21.0278698777        9.2418301011
  O        12.1468719153       20.8911778028        6.6731422103
  O        13.1106211901       18.6139929767        5.3251188210
  O        13.9605913157       16.9883496864        6.6629928847
  O        29.9873467593       14.4375840249       10.7280293530
  O        28.0875850988       14.6557346563        9.4903449867
  O        32.1056044436       16.9064976932        8.0790828151
  O        30.9672361369       20.9581467322       10.4058965985
  O        32.9472207595       20.6053990415        9.3406864178
  O        29.5639359138       17.0793593578        9.5754142801
  O        30.8700365334       20.8015427996        5.5742221994
  O        32.8619309973       20.5820653694        6.6627249899
  O        31.6022198843       18.2431031253        5.8941114176
  O        28.2849155688       18.6810518443        8.0843333759
  O        32.4965042510       14.2110578095        9.4000287568
  O        32.4025347889       14.2163399766        6.8290444400
  O        29.8764040641       14.5186454325        5.4107351189
  O        28.0420100872       14.5921328892        6.7491512500
  O        17.8891450693        1.9664984702       10.6628609259
  O        18.9561629783        3.5270523517        9.4079732818
  O        39.1686699247       34.1386060553        7.9969896531
  O        43.2802010895       33.0589711289       10.3315947002
  O        42.0344935997       31.5064852973        9.2415048856
  O        20.3174689838        1.0363376810        9.4805308183
  O        43.2760857596       33.1825543881        5.5749274898
  O        42.0052273027       31.5841036183        6.5830307525
  O        40.5790977064       33.7748729661        5.9357001334
  O        22.3670302059        1.3843139247        7.9978664815
  O        36.6726119748       35.0996629901        9.2333668091
  O        16.4454408784        0.0639551482        6.6681571589
  O        17.9364113855        2.0433655277        5.3263333357
  O        18.9189947130        3.5931028177        6.6659592146
  O        29.7858853814       19.0452280451       12.0009814838
  O        31.2909866032       16.1168212652        3.9299879244
  O        31.3511259724       16.3493074330       11.9879855872
  O        32.2845664619       16.4851082308        1.7398613572
  O        29.6647719195       16.9222307475        1.1617756679
  O        30.4161077880       15.7482891259       14.3374684340
  O        31.5144295494       18.0963452474       14.9913747240
  O        30.6236498520       19.4804930920        1.9251371764
  O        28.9705786933       18.5367143886       14.5575858020
  O        39.4567768656       35.2437963091        4.0019656896
  O        19.1414712021        0.0046128215       11.9906649866
  O        41.9698152613       35.1728399434        4.0872994929
  O        21.6915083979       -0.0693221898       11.8957691782
  O        51.3652591757       18.6141591294        4.0055156298
  O        10.7510461413       18.7472726956       11.9047776029
  O        50.0796593754       16.4129305746        4.0916537188
  O         9.5243956276       16.4831306898       11.9912151465
 Zr         9.2950606083       16.0531428283        6.1823627645
 Zr        49.8350135097       16.0069461697        9.7463794107
 Zr        22.0726123597        0.0281893969        6.1895033776
 Zr        42.4601940808       35.1517186100        9.8004193187
 Zr        29.6232096584       19.1179818117        6.4019193692
 Zr        29.5621301168       19.1732777013        9.9383359531
 Zr        11.0366168454       19.0519135916        9.8270643750
 Zr        11.0431456322       19.1547637211        6.2510732823
 Zr        31.3362996809       16.1033831492        9.9386692625
 Zr        31.4178097001       16.0225522796        6.3609986621
 Zr        18.6002249545       -0.0033728534        9.7636982041
 Zr        18.5058532827       -0.0096831785        6.2133557002
 Zr        12.3013416066       16.3241181422        7.9893491836
 Zr        48.6143262009       18.8329262333        8.0097809291
 Zr        20.3138909044        2.4711820113        7.9905988464
 Zr        40.6415742106       32.6847486303        7.9779619962
 Zr        28.3370861039       16.3450619585        8.0931281564
 Zr        32.6598252193       18.8615595924        8.0834455703
  H        30.4963788383       15.5516550887        3.8019903671
