     569
 i =      177, E =     -4729.5010920277
  C        11.8584789080       14.0534028808        5.7415428846
  C        12.4559027103       12.8903452911        5.0232597238
  C        11.7043981228       12.1719362826        4.0810735093
  C        12.2806895914       11.1096831102        3.3887062131
  C        13.6210364393       10.7393352903        3.6168768156
  C        14.3539634528       11.4423092405        4.5909789639
  C        13.7811226196       12.5072666384        5.2825432652
  C        14.2605662935        9.6486959783        2.8434633825
  C        14.2558515046        9.6565923056        1.4217548902
  C        13.7426251248       10.7586515735        0.6677962077
  C        49.1262998097       21.2335167172        5.8798113601
  C        48.5493414612       22.4011949211        5.1526793863
  C        49.2994912160       23.0687863206        4.1719367751
  C        48.7324870854       24.1077950536        3.4386566016
  C        47.4017774169       24.5090544593        3.6669733040
  C        46.6706503089       23.8598493997        4.6801427829
  C        47.2331636611       22.8150335380        5.4095759769
  C        46.7716237919       25.5867566416        2.8696642920
  C        46.7608085991       25.5571924795        1.4479112461
  C        47.2607425497       24.4420752194        0.7044596910
  C        14.8597596989        8.5702326475        0.7084918292
  C        14.8913249481        8.5967181740        3.5201072376
  C        49.1127030557       21.2034549969       10.1453172742
  C        48.5272288248       22.3646390165       10.8724750752
  C        49.2665134070       23.0256301060       11.8651785350
  C        48.6900814715       24.0600893714       12.5966554436
  C        47.3595288643       24.4565266277       12.3586159464
  C        46.6390105163       23.8112809915       11.3353863084
  C        47.2126614854       22.7754523352       10.6035784488
  C        46.7210840128       25.5314815889       13.1496274780
  C        46.7330221133       25.5279523659       14.5713182893
  C        47.2484568936       24.4287397864       15.3277003716
  C        40.6161376778       17.1023606832       15.3251626901
  C        40.6355964343       17.1390504172       12.5149173080
  C        11.8824114541       14.0862906223       10.2854501353
  C        12.4713172923       12.9100208008       10.9893645318
  C        11.7139440358       12.1775525450       11.9161650929
  C        12.2802685690       11.0949312424       12.5845641563
  C        13.6187343383       10.7203222956       12.3521020155
  C        14.3564253981       11.4349661399       11.3903755883
  C        13.7912552993       12.5162807565       10.7177214375
  C        14.2524074121        9.6237028750       13.1226248468
  C        14.2515251151        9.6439356375       14.5444739577
  C        13.7418248461       10.7529685864       15.2915391592
  C        22.5136182369        3.2427634705        5.7532008948
  C        23.2351962216        4.3428209169        5.0527873078
  C        24.2291079141        4.0518008022        4.1065693463
  C        24.8653734915        5.0838145809        3.4221191557
  C        24.5234967573        6.4288903557        3.6641866820
  C        23.5575752595        6.7114755686        4.6472057839
  C        22.9164126594        5.6810327106        5.3301263447
  C        25.1381522189        7.5285482338        2.8861072402
  C        25.1032915413        7.5244421127        1.4649203575
  C        24.3893156577        6.5314662802        0.7221885020
  C        38.2973991082       31.9267565938        5.8525205937
  C        37.5556306654       30.8363653117        5.1538269805
  C        36.5872088903       31.1398951919        4.1842298029
  C        35.9581462955       30.1197266332        3.4753719682
  C        36.2820045445       28.7690676603        3.7118901654
  C        37.2188145073       28.4730063800        4.7202647474
  C        37.8516359155       29.4920333921        5.4287559702
  C        35.6763701578       27.6785159601        2.9119343922
  C        35.7174947496       27.6948864427        1.4901091336
  C        36.4265669503       28.6993080772        0.7583899906
  C        25.7291094824        8.5920154138        0.7436568978
  C        25.7478183631        8.5967821687        3.5544038865
  C        38.3310110342       31.9602065303       10.1615379695
  C        37.6166850543       30.8868263020       10.9130235906
  C        36.6841040063       31.1954981440       11.9155999242
  C        36.0762053177       30.1782244525       12.6497318333
  C        36.3855513868       28.8246817478       12.4064365722
  C        37.2996639842       28.5260119555       11.3770222801
  C        37.9091723229       29.5397133873       10.6437705499
  C        35.7720503237       27.7249285200       13.1882727239
  C        35.7659953634       27.7188426223       14.6111857960
  C        36.4485628030       28.7118088563       15.3817642950
  C        46.1350921083       26.6206463941       15.2814133214
  C        46.0870520500       26.5797503239       12.4735270274
  C        22.4590112722        3.2528714908       10.2557829520
  C        23.1521198205        4.3594928146       10.9790548317
  C        24.1561681326        4.0699001498       11.9162080750
  C        24.7847693864        5.0981506697       12.6129974323
  C        24.4278368198        6.4432882454       12.3937260041
  C        23.4463273776        6.7263649969       11.4255787773
  C        22.8132793759        5.6982659839       10.7290298655
  C        25.0622870214        7.5381399103       13.1659608284
  C        25.0640815865        7.5292955198       14.5880662100
  C        24.3692310355        6.5344830416       15.3455554604
  C        26.5049043304       17.7997554910        5.8175751875
  C        25.2144544673       17.8450496455        5.0782780301
  C        24.9658621343       18.8616116374        4.1429905728
  C        23.7678115696       18.8843183122        3.4349489062
  C        22.7862534725       17.8959011511        3.6454697941
  C        23.0302929138       16.9005050441        4.6094587656
  C        24.2318098326       16.8703945422        5.3131761142
  C        21.5260133638       17.8928180642        2.8673961963
  C        21.5409536548       17.8984831658        1.4464175669
  C        22.7541370463       17.7888703194        0.6963640096
  C        34.4315603039       17.1821742745        5.9506485061
  C        35.7155470814       17.1188472853        5.1971155448
  C        35.8912680019       16.1785232166        4.1692433091
  C        37.0700738906       16.1594105952        3.4276205652
  C        38.1052130741       17.0784443205        3.6911037606
  C        37.9291551393       17.9991260596        4.7429508337
  C        36.7491574015       18.0251658151        5.4817044081
  C        39.3589645143       17.0867054395        2.9016952740
  C        39.3563393997       17.1114738830        1.4790390238
  C        38.1513346326       17.2448897859        0.7200203863
  C        20.3005493650       17.9296871662        0.7301085477
  C        20.2984754417       17.8840452100        3.5410629425
  C        34.4504686819       17.1910120897       10.1922205309
  C        35.7466196377       17.1252413290       10.9188060547
  C        35.9594100298       16.1557857344       11.9110834875
  C        37.1486836688       16.1436977641       12.6342560535
  C        38.1545157374       17.0984828222       12.3857598280
  C        37.9464772303       18.0425021248       11.3621142341
  C        36.7554080886       18.0615223280       10.6419087614
  C        39.4035698459       17.1222915090       13.1793702603
  C        39.3793779761       17.1305521287       14.6012155983
  C        38.1621083714       17.2517304877       15.3431077925
  C        35.1310920665       26.6381335437       15.3102264604
  C        35.1900785043       26.6522123392       12.5000711376
  C        26.5611670043       17.8428797347       10.3168081355
  C        25.2427591445       17.9078464620       11.0036067661
  C        24.9899405597       18.9101141913       11.9528008532
  C        23.7751406681       18.9393284788       12.6302163709
  C        22.7863748612       17.9671767207       12.3799420495
  C        23.0322604109       16.9935225000       11.3949819537
  C        24.2476870986       16.9607681280       10.7163549683
  C        21.5238510628       17.9483669858       13.1508894331
  C        21.5398685585       17.9258010642       14.5715912104
  C        22.7532629434       17.8018271210       15.3200678323
  C        14.0444910498       17.8346295989       10.2800676003
  C        15.3533834069       17.9058351613       10.9904014066
  C        15.6136328046       18.9265902922       11.9171411824
  C        16.8262617611       18.9585318554       12.6012258978
  C        17.8070393071       17.9722405921       12.3781520537
  C        17.5535164055       16.9777259427       11.4159385771
  C        16.3405791907       16.9417111420       10.7328960625
  C        19.0710606591       17.9567122726       13.1503726156
  C        19.0582496610       17.9406308886       14.5710885343
  C        17.8435792913       17.8371200749       15.3192412738
  C        46.8023079650       17.2192095676       10.1607888032
  C        45.5118689363       17.1571219948       10.9082591184
  C        45.3071055629       16.1810476488       11.8962450112
  C        44.1251108257       16.1606193676       12.6326904978
  C        43.1151356692       17.1163978715       12.4051378781
  C        43.3177179788       18.0725639489       11.3909953861
  C        44.5003584179       18.0967542887       10.6551543057
  C        41.8602182021       17.1240122057       13.1939104801
  C        41.8637128677       17.1180517435       14.6167229571
  C        43.0713787703       17.2097536707       15.3777624620
  C        20.2995150531       17.9419799872       15.2868675199
  C        20.2973675463       17.9424838607       12.4755461152
  C        46.7819801821       17.2292569312        5.8893011769
  C        45.4761540893       17.1164330169        5.1774307102
  C        45.2590570369       16.1156749026        4.2176555308
  C        44.0687629227       16.0809033970        3.4947141585
  C        43.0635832248       17.0432375198        3.7137215045
  C        43.2708427421       18.0128996511        4.7129708894
  C        44.4625395658       18.0544693951        5.4307227220
  C        41.8158534304       17.0608943044        2.9162532616
  C        41.8411406745       17.0836230533        1.4948656421
  C        43.0605509632       17.1910678362        0.7545980682
  C        46.1529058279       26.6371182782        0.7261538697
  C        46.1616493912       26.6558459772        3.5357940782
  C        14.0360992975       17.8241027692        5.7033690873
  C        15.3447329655       17.8826935631        4.9936973918
  C        15.6169859936       18.9054739672        4.0736766283
  C        16.8372088208       18.9343070465        3.4040225237
  C        17.8077001153       17.9388934152        3.6310113674
  C        17.5403520279       16.9399799341        4.5839823443
  C        16.3226044574       16.9111789573        5.2576800855
  C        19.0733822375       17.9181105504        2.8647013830
  C        19.0596873551       17.9199919620        1.4443057728
  C        17.8443335351       17.8277775008        0.6950571781
  C        28.8192175421       14.0339095336       10.3493653745
  C        28.2058399582       12.8639204654       11.0291992920
  C        28.9321143233       12.1293947806       11.9792946251
  C        28.3297779219       11.0679526968       12.6475356756
  C        26.9899054166       10.7161549955       12.3874689804
  C        26.2866386636       11.4285630981       11.3990486458
  C        26.8844185382       12.4935352278       10.7313213256
  C        26.3213686723        9.6442760014       13.1575636261
  C        26.3219899700        9.6681370142       14.5785044572
  C        26.8366227130       10.7769256229       15.3219601567
  C        32.1901481459       21.2376467278       10.1526687853
  C        32.7819097656       22.4007996312       10.8708545746
  C        32.0347404986       23.0812694214       11.8454917709
  C        32.6068394883       24.1193955979       12.5737704009
  C        33.9421354449       24.5079341811       12.3496453970
  C        34.6711166729       23.8476703311       11.3419399759
  C        34.1022915064       22.8031548411       10.6156490979
  C        34.5694965636       25.5818624891       13.1543059681
  C        34.5493039289       25.5524706856       14.5765395996
  C        34.0400719377       24.4347721623       15.3105092082
  C        25.7124165819        8.5915394820       15.2994800536
  C        25.6752525821        8.5983981118       12.4868714394
  C        32.0779479430       21.1935934286        5.8924280849
  C        32.6564119383       22.3480240836        5.1414180685
  C        31.9296063830       22.9847363518        4.1234992503
  C        32.5037948158       24.0239499844        3.3928451761
  C        33.8191505070       24.4556850557        3.6573914544
  C        34.5277534388       23.8293252842        4.7012531455
  C        33.9589344375       22.7871108257        5.4283037826
  C        34.4603079345       25.5421272932        2.8778669805
  C        34.4929874420       25.5330043291        1.4550642993
  C        34.0124355045       24.4256874323        0.6873308346
  C        40.6039702014       17.0883276104        0.7705793420
  C        40.5840925567       17.0776045333        3.5803140262
  C        28.7301535662       14.0505085426        5.8065553947
  C        28.1444849415       12.8973609661        5.0731001815
  C        28.8843350683       12.2306787898        4.0839110800
  C        28.3187838606       11.1668174966        3.3861944739
  C        26.9992568703       10.7468620511        3.6498868964
  C        26.2788195902       11.4016198364        4.6667204000
  C        26.8414102422       12.4643718597        5.3675531286
  C        26.3620268384        9.6572797593        2.8753705142
  C        26.3442560875        9.6748229337        1.4536877404
  C        26.8439788328       10.7817975818        0.6979648567
  C        18.1353206051        3.1807603456       10.3169918164
  C        17.4057452198        4.2779177168       11.0156352806
  C        16.3902290134        3.9993132442       11.9432807276
  C        15.7422501309        5.0391300015       12.6068070542
  C        16.0936833406        6.3829305537       12.3669632136
  C        17.0828367790        6.6526919419       11.4030323865
  C        17.7321659757        5.6155087827       10.7379581209
  C        15.4691853350        7.4905346727       13.1300075108
  C        15.4847612619        7.4900626199       14.5517198536
  C        16.1865607878        6.4966187099       15.3048879918
  C        42.9456441499       31.8593205661       10.0728328364
  C        43.6458956230       30.7716171601       10.8167216975
  C        44.5916211330       31.0928671180       11.8026320870
  C        45.1972535650       30.0872774532       12.5502716576
  C        44.8704933479       28.7342661698       12.3355894843
  C        43.9444505684       28.4199805383       11.3225601543
  C        43.3357315793       29.4251727602       10.5745197460
  C        45.4880242755       27.6549685765       13.1387939745
  C        45.4924066083       27.6807681177       14.5604769757
  C        44.8054829040       28.6889415358       15.3070777954
  C        14.8557821912        8.5625710104       15.2640510497
  C        14.8735265763        8.5620649523       12.4513912695
  C        42.9463528374       31.9614293670        5.8089124027
  C        43.6914119902       30.8853066015        5.0953896923
  C        44.6563658222       31.1911922090        4.1234311756
  C        45.2777905788       30.1715854660        3.4056694914
  C        44.9535484642       28.8213180131        3.6429592443
  C        44.0195883723       28.5236584603        4.6532909855
  C        43.3914252743       29.5404454678        5.3655095243
  C        45.5625540391       27.7239209509        2.8577075239
  C        45.5330079997       27.7173187649        1.4364204168
  C        44.8268150795       28.7076329134        0.6834666960
  C        35.1042254764       26.6270744466        0.7559389963
  C        35.0646484299       26.6026640362        3.5662826646
  C        18.1484832660        3.2467932313        5.7065193428
  C        17.4297117718        4.3436248885        4.9972966099
  C        16.4145452577        4.0522952022        4.0737060603
  C        15.7661941819        5.0828846129        3.3982693110
  C        16.1207489116        6.4281426652        3.6210118719
  C        17.1120794893        6.7115715488        4.5783046271
  C        17.7598048696        5.6827065028        5.2581033919
  C        15.4902354313        7.5238249491        2.8485340066
  C        15.4961225316        7.5072148008        1.4273929754
  C        16.1929192679        6.5055349256        0.6807024812
  H        10.6724250774       12.4664341050        3.9037211366
  H        11.6944387797       10.5515354360        2.6618775450
  H        15.3907417581       11.1671055118        4.7732355478
  H        14.3502612263       13.0698397702        6.0187284090
  H        13.3756195090       11.6308132297        1.2010450072
  H        50.3223239339       22.7490172886        3.9874591895
  H        49.3189849402       24.6232805919        2.6812408915
  H        45.6409660263       24.1602061156        4.8629234224
  H        46.6619577617       22.2894711739        6.1713076247
  H        47.6291298978       23.5756465071        1.2461661226
  H        14.8715355567        8.5878752766        4.6084117001
  H        50.2866604108       22.7030243888       12.0599265990
  H        49.2684482168       24.5757805361       13.3600165806
  H        45.6094572238       24.1081727010       11.1465836982
  H        46.6517094968       22.2530015947        9.8323022483
  H        47.6070878251       23.5515448392       14.7968280613
  H        40.6420269177       17.1080195959       11.4270018500
  H        48.6867314430       14.0949557741        7.7998801973
  H        10.6807299264       12.4672449510       12.0940772041
  H        11.6884982116       10.5250859765       13.2977214801
  H        15.3915016188       11.1562298315       11.2037419990
  H        14.3633538432       13.0849100865        9.9884300080
  H        13.3748063508       11.6214887401       14.7528870978
  H        47.9300173470       14.2174681927        9.7110237854
  H        47.7798515989       14.3727160796        6.4947382140
  H        49.0820312003       18.5520811795       10.8670473432
  H        10.4153406007       14.1342895270        7.9988031522
  H        24.4803440785        3.0104239320        3.9181915349
  H        25.6360904465        4.8580110151        2.6883218524
  H        23.2864321502        7.7474416121        4.8397015216
  H        22.1483916723        5.8896130037        6.0709973388
  H        23.8270516533        5.7772917964        1.2650351049
  H        36.3523963429       32.1832419538        3.9870530408
  H        35.2086416727       30.3607240790        2.7246773233
  H        37.4771863220       27.4336278127        4.9123047902
  H        38.6006139390       29.2689541687        6.1850007022
  H        36.9847046474       29.4507929046        1.3091626104
  H        25.7886824850        8.5775506783        4.6419467089
  H        36.4544189058       32.2395503393       12.1163404723
  H        35.3463300614       30.4255857255       13.4174473217
  H        37.5534231546       27.4861204055       11.1820141561
  H        38.6350940407       29.3115691001        9.8670723584
  H        37.0244527802       29.4723697583       14.8622931997
  H        46.1082293241       26.5869918429       11.3854860080
  H        44.6683177632       35.1160925436        7.8140035867
  H        24.4340731235        3.0310883401       12.0789922364
  H        25.5679148939        4.8694774626       13.3326434586
  H        23.1608882682        7.7614984150       11.2496397441
  H        22.0394130712        5.9109587918        9.9951468663
  H        23.7910189734        5.7831191477       14.8156367774
  H        44.9540157950       34.3903555186        9.6949498749
  H        44.9022817683       34.2068783201        6.4906546281
  H        40.6661064853       33.2089653449       10.8529973585
  H        23.1506240738        1.9570555112        8.0050009205
  H        25.7213132742       19.6279121364        3.9862360943
  H        23.5753619639       19.6757362341        2.7138495726
  H        22.2803918588       16.1297826039        4.7750479344
  H        24.4365633925       16.0884569001        6.0403890467
  H        23.6906631544       17.6615262829        1.2319514386
  H        35.0878338224       15.4784562968        3.9510959958
  H        37.2009009494       15.4219268402        2.6387991066
  H        38.7175673519       18.7192924599        4.9516638058
  H        36.5997212302       18.7537133761        6.2751396737
  H        37.2110825351       17.3737114799        1.2484985714
  H        20.2971318311       17.9044525971        4.6293532109
  H        35.1754006780       15.4302254510       12.1150245297
  H        37.3106640290       15.3896441148       13.4013077333
  H        38.7153727539       18.7866665326       11.1651126202
  H        36.5757585568       18.8081327211        9.8719629741
  H        37.2298001947       17.3841745661       14.8016423413
  H        35.1725492802       26.6781967843       11.4121325762
  H        28.4856946817       21.1019339714        7.8937308339
  H        25.7597855935       19.6542230150       12.1434164868
  H        23.5769316520       19.7178606064       13.3636836227
  H        22.2743662418       16.2384347713       11.1969564448
  H        24.4558887156       16.1945926438        9.9735527126
  H        23.6894088271       17.6842893458       14.7823033149
  H        28.9602947861       21.7607148205        9.7405898700
  H        29.1949889570       21.7013343688        6.5559174962
  H        32.0544480754       18.4772399274       11.0188322086
  H        27.3723233742       18.9958740710        8.1236087897
  H        14.8544803746       19.6868059378       12.0865931314
  H        17.0278560482       19.7521391935       13.3175159145
  H        18.3042618146       16.2105314621       11.2381184787
  H        16.1275321209       16.1616940089       10.0059294412
  H        16.9056502020       17.7333023132       14.7817129832
  H        46.0913873980       15.4505141185       12.0803543987
  H        43.9693017620       15.3944144003       13.3889800143
  H        42.5479828994       18.8197736663       11.2090987504
  H        44.6699221437       18.8499881017        9.8892214061
  H        44.0138100342       17.3271431155       14.8505010540
  H        20.2976655836       17.9797025285       11.3876754720
  H        46.0392217951       15.3792676044        4.0387368640
  H        43.9055387129       15.3042907348        2.7506095541
  H        42.5007946205       18.7608983644        4.8900461771
  H        44.6417032043       18.8232469288        6.1784387303
  H        43.9948088196       17.2927610815        1.2991886293
  H        46.1982455273       26.6822713451        4.6232499389
  H        52.7409931958       21.0625487083        8.1945800057
  H        14.8637331634       19.6714005115        3.9031833231
  H        17.0532349901       19.7311970391        2.6956910969
  H        18.2834901723       16.1653857751        4.7615272629
  H        16.0972872479       16.1310640704        5.9806980569
  H        16.9068807345       17.7167010411        1.2318295939
  H        52.3219251698       21.6735423367        6.2949355293
  H        52.0131118895       21.7023971524        9.4953240411
  H        49.0660921020       18.6072929938        5.2045488168
  H        13.2464769706       19.0166963751        7.9743258033
  H        29.9631344196       12.4082308433       12.1841520106
  H        28.8921172308       10.4991402231       13.3847494632
  H        25.2517753715       11.1643150623       11.1917207038
  H        26.3370841783       13.0684953068        9.9885156606
  H        27.2001458759       11.6463220900       14.7822563752
  H        31.0089445014       22.7725494205       12.0300936482
  H        32.0220689158       24.6431686331       13.3266941028
  H        35.7043551386       24.1372536499       11.1616623477
  H        34.6731107922       22.2692970157        9.8593410714
  H        33.6962688988       23.5618150267       14.7629759267
  H        25.6976015569        8.5799958328       11.3987277053
  H        30.9203386355       22.6415247181        3.9066685136
  H        31.9311482882       24.5167009621        2.6101412006
  H        35.5466866784       24.1470366509        4.9125918514
  H        34.5150261553       22.2836360411        6.2154899637
  H        33.6475178026       23.5457885363        1.2097253006
  H        40.5776043726       17.0317786658        4.6676992467
  H        32.4920211958       14.0791663343        7.8896777793
  H        29.8987433246       12.5623234708        3.8742188900
  H        28.8992503311       10.6460163850        2.6278709403
  H        25.2576342749       11.0897603043        4.8755428293
  H        26.2794040789       12.9869325118        6.1374967684
  H        27.2104977221       11.6561514507        1.2278459997
  H        33.3612668691       14.3050922647        6.5255181903
  H        33.3558178289       14.1263325894        9.6647768222
  H        31.9943046167       18.4588457471        5.1403155000
  H        30.1578749665       14.1944411043        8.1200920864
  H        16.1185454949        2.9627284945       12.1297922578
  H        14.9529253514        4.8195316946       13.3225402507
  H        17.3648237923        7.6856555495       11.2097554141
  H        18.5139561953        5.8182888407       10.0098805027
  H        16.7530894440        5.7392666757       14.7713757598
  H        44.8281657769       32.1399130057       11.9766600445
  H        45.9372902209       30.3409326040       13.3060805123
  H        43.6814873924       27.3779501772       11.1526172402
  H        42.5990163458       29.1898821591        9.8099352809
  H        44.2301502439       29.4367209743       14.7687694037
  H        14.8494263120        8.5450313888       11.3631818751
  H        44.9002738897       32.2338429614        3.9322931117
  H        46.0249922123       30.4127404896        2.6527031342
  H        43.7621577281       27.4839691603        4.8444492470
  H        42.6445593221       29.3176552998        6.1235961958
  H        44.2683756578       29.4705717371        1.2180488517
  H        35.0138536037       26.6148202325        4.6534442874
  H        36.6052393688       35.1338525453        8.1807515036
  H        16.1435389181        3.0126960509        3.9039764816
  H        14.9738811611        4.8559689970        2.6881906039
  H        17.3954818750        7.7470619903        4.7552161258
  H        18.5426751767        5.8931508350        5.9828745618
  H        16.7644242728        5.7553541455        1.2191497573
  H        36.2788450574       34.4820442194        6.2732164180
  H        36.3812430595       34.2088407721        9.4996424579
  H        40.5783480868       33.2011958943        5.1539992763
  H        17.4708130923        1.9470155046        7.9738795884
  H        29.5142692828       19.6073635798       12.6458348824
  H        28.6411966749       19.0308375041        3.9581337755
  H        31.6769382246       15.8940418078        3.4916830431
  H        30.9131875808       15.4829479387       12.4197090743
  H        28.5532221395       18.3504576567       14.8052433071
  H        29.1934482655       15.7723367252       14.7382492630
  H        30.4393929522       16.7522296516        1.7137658069
  H        18.8532785850        0.8688204505       12.3352700922
  H        40.5282325544       35.2292115205        3.9522624136
  H        42.3228029376       34.4180972362        3.5908813005
  H        22.0876703041        0.6920938525       12.3514022567
  H        11.5964772605       18.7129686097       12.3826509940
  H        52.2645827570       18.4314628842        3.6776396772
  H        49.2557642480       16.4762198456        3.5838128192
  H        10.1501965286       15.7981443415       12.2925018378
  H        50.8497218996       17.6925497837        3.9540481182
  H        10.0458577059       17.3946065939       12.0519657345
  H        20.2147855833        0.0021945095       12.0419837082
  H        39.1835262035       36.1242271424        3.6862338439
 Ni        30.2223483646       17.6973125353        2.9911624921
 Ni        31.2023331096       16.0086337936       -0.1637310842
 Ni        30.0181843172       17.8081689942        0.5837237760
 Ni        30.2238490150       17.4491287000       13.4022867948
  O        10.6498500159       14.3651291993        5.4857350392
  O        12.6130840993       14.6573951845        6.5838095482
  O        49.1477169947       16.8460377046        7.9896854946
  O        50.3499623544       20.9365803599        5.6483935936
  O        48.3483788104       20.5932418190        6.6659953262
  O        11.0507809781       17.0541638107        6.5003774851
  O        50.3206252127       20.8817567782       10.4068662325
  O        48.3465548447       20.5866730522        9.3270069643
  O        49.5431365362       18.2484735309       10.0684033980
  O        12.3582796428       18.6246515379        7.9996442799
  O        48.6932113585       14.1486181819        6.7512484253
  O         8.2097369072       14.2104923460        9.3226116908
  O        10.7350325076       14.5067690941       10.6643906474
  O        12.5716212539       14.5826513523        9.3286440948
  O        22.8442895713        2.0411279764        5.4875017630
  O        21.6067635460        3.5929421205        6.5882218882
  O        42.0579211586       34.1370083883        7.9787456577
  O        37.9810597919       33.1354782500        5.5721991401
  O        39.2176006425       31.5752552080        6.6659691929
  O        20.3083267596        1.0394204485        6.5017244326
  O        38.0242323277       33.1845300393       10.4159284690
  O        39.2183171265       31.5829201909        9.3275771714
  O        40.6521963684       33.7692176370       10.0600551524
  O        18.2557467467        1.3761948574        7.9966753812
  O        44.6222882523       35.1004836178        6.7587750025
  O        24.2054568859        0.0000041613        9.3207650676
  O        22.7522499692        2.0555536449       10.5827708288
  O        21.6235671538        3.5948392617        9.3408655248
  O        27.3763498298       18.6977228444        5.5768954527
  O        26.6496278009       16.8503143903        6.6701914339
  O        30.6320417883       19.3405475728        8.1312369039
  O        33.5722090198       16.2573052762        5.7439785922
  O        34.2654208775       18.1730935933        6.7436588947
  O        29.5171286136       17.0095500613        6.5898846983
  O        33.5920327033       16.2647692138       10.4190466871
  O        34.2705064651       18.1758635210        9.4031634113
  O        31.6737434287       18.2453141558       10.1537620679
  O        30.2639635472       15.1596186518        8.0861622802
  O        28.5398859368       21.0386458787        6.8491906784
  O        28.5157668266       20.9595188629        9.4146459585
  O        27.4597308311       18.6798041525       10.6606646603
  O        26.6916099550       16.9267734279        9.4180830662
  O        13.1455392175       18.6943873200       10.5856072412
  O        13.9173115400       16.9158468675        9.4034211162
  O        50.5952131415       19.3502858097        8.0205879903
  O        47.6816576247       16.3276999256       10.4178631464
  O        46.9501361417       18.1756923712        9.3255791921
  O        11.0685371029       17.0160302740        9.4896984643
  O        47.6751269451       16.3358129791        5.6528096319
  O        46.9247317239       18.2355224309        6.6630251370
  O        49.5685150098       18.3178113423        5.9821780946
  O        10.3185381981       15.1001999104        7.9970898780
  O        52.6706304378       21.0280646833        9.2418090752
  O        12.1467785960       20.8913906766        6.6732530091
  O        13.1038177942       18.6141591757        5.3263798814
  O        13.9550252180       16.9861682331        6.6659831933
  O        30.0168928666       14.3604237340       10.6537693542
  O        28.0811662952       14.6507507164        9.4938660509
  O        32.0596707146       16.8481265796        8.0765424549
  O        30.9666746106       20.9524999522       10.4129746252
  O        32.9452074882       20.5951508513        9.3435069221
  O        29.4523776923       17.0006456372        9.7524943017
  O        30.8498190849       20.8911192353        5.6801887464
  O        32.8682369297       20.5733061059        6.6823533515
  O        31.6037945919       18.2555117478        6.0099672129
  O        28.2637249939       18.6120329975        8.0936108815
  O        32.4428823005       14.1515861121        9.3328514832
  O        32.4458350726       14.1454562811        6.8218445994
  O        29.9062033420       14.4339922485        5.5000609128
  O        27.9863159987       14.5736570467        6.7270735876
  O        17.8891873728        1.9664772571       10.6627967702
  O        18.9561659347        3.5270862555        9.4079411885
  O        39.1685727549       34.1386270788        7.9970333237
  O        43.2801469216       33.0587374566       10.3316730247
  O        42.0342619200       31.5064419042        9.2415192137
  O        20.3174161263        1.0365605080        9.4800004787
  O        43.2760501917       33.1824412257        5.5748646651
  O        42.0051913216       31.5841044198        6.5830124550
  O        40.5789178515       33.7749008290        5.9353844424
  O        22.3671614005        1.3843328390        7.9977375470
  O        36.6728262152       35.0996231767        9.2333562078
  O        16.4456568126        0.0640797975        6.6681827143
  O        17.9363976540        2.0432308029        5.3264003844
  O        18.9190319462        3.5931365150        6.6657843799
  O        29.5687732773       18.9762292828        4.2554327979
  O        29.8746283415       18.9052811315       12.0752062714
  O        31.2674472001       16.4811425407        4.1574154444
  O        31.0928238392       16.3432732677       11.9914051303
  O        32.5307053702       15.7463061866        1.0049719255
  O        30.1063415109       15.8230181742       14.3916678726
  O        29.5210154809       18.4677384277       14.8399883762
  O        39.4568685869       35.2437410441        4.0019671846
  O        19.1413385849        0.0044251635       11.9905172621
  O        41.9697026683       35.1729270334        4.0870088400
  O        21.6912284218       -0.0693168592       11.8958316636
  O        51.3646142270       18.6144255201        4.0052859993
  O        10.7507722673       18.7472818118       11.9050423595
  O        50.0799489908       16.4127450886        4.0916179423
  O         9.5243184182       16.4830765856       11.9912310132
 Zr         9.2958629662       16.0529615488        6.1820086045
 Zr        49.8349727569       16.0070006030        9.7467841327
 Zr        22.0733651402        0.0291505322        6.1889028435
 Zr        42.4607542621       35.1527085577        9.8005604835
 Zr        29.5451075035       19.0822847539        6.3331223959
 Zr        29.5998195617       19.2406871652        9.9273353679
 Zr        11.0362665610       19.0526094484        9.8275853850
 Zr        11.0422626053       19.1554451134        6.2514444957
 Zr        31.4751318242       15.9655036935        9.8744571385
 Zr        31.3237715351       16.0445309431        6.2367458449
 Zr        18.6010685498       -0.0018874920        9.7634669337
 Zr        18.5064998899       -0.0084324018        6.2133996915
 Zr        12.2994363111       16.3231156410        7.9906820965
 Zr        48.6145981441       18.8327018116        8.0100629614
 Zr        20.3147830094        2.4727795139        7.9896597139
 Zr        40.6427963037       32.6863658386        7.9779426961
 Zr        28.2553257447       16.2765935098        8.0237808169
 Zr        32.6212219177       18.8197007730        8.0699287698
  H        29.2049603554       18.2525258111        1.9682480964
  H        29.0526519879       16.7310076117       10.6036850625
  H        33.1920701049       16.4526154213        0.8978621306
