     573
 i =      261, E =     -4762.8068583448
  C        11.8589402095       14.0535250347        5.7415144911
  C        12.4564516924       12.8906112094        5.0232507648
  C        11.7046965777       12.1715009658        4.0817739211
  C        12.2811058211       11.1093015394        3.3894538218
  C        13.6217724880       10.7397360832        3.6170289923
  C        14.3550290132       11.4435359361        4.5902554939
  C        13.7821154471       12.5085203557        5.2817286520
  C        14.2613096201        9.6490674484        2.8436484569
  C        14.2565352540        9.6569502673        1.4219530139
  C        13.7433436678       10.7590792888        0.6680729137
  C        49.1270312185       21.2332354414        5.8796971386
  C        48.5502980846       22.4012313555        5.1525935012
  C        49.3002714880       23.0684703242        4.1715156398
  C        48.7333496989       24.1076413821        3.4383331475
  C        47.4028735204       24.5094079602        3.6670932586
  C        46.6719960369       23.8606639320        4.6807488423
  C        47.2344620527       22.8157543199        5.4100780133
  C        46.7725575594       25.5870762866        2.8698378659
  C        46.7614390776       25.5574313846        1.4480768397
  C        47.2614090674       24.4423686735        0.7045635462
  C        14.8605062979        8.5706390689        0.7086796019
  C        14.8921530429        8.5971623950        3.5202916097
  C        49.1133635191       21.2035440950       10.1453850768
  C        48.5280080241       22.3649445719       10.8725872693
  C        49.2671963832       23.0255329121       11.8656017503
  C        48.6909125254       24.0601336806       12.5970474966
  C        47.3605742981       24.4570659816       12.3586940713
  C        46.6402219906       23.8123276281       11.3350176806
  C        47.2137384328       22.7763831343       10.6032595938
  C        46.7221009466       25.5320194215       13.1497234798
  C        46.7336926185       25.5282995095       14.5714307319
  C        47.2491377249       24.4290835683       15.3278031167
  C        40.6366830374       17.1287249992       15.3209151592
  C        40.6558597595       17.1719275881       12.5121592561
  C        11.8831122081       14.0865467044       10.2855270330
  C        12.4725264737       12.9108817306       10.9898633256
  C        11.7149597289       12.1774632814       11.9157631724
  C        12.2816136943       11.0950374552       12.5841650505
  C        13.6205464118       10.7215845921       12.3525399768
  C        14.3586135687       11.4374256329       11.3920214518
  C        13.7931195781       12.5185662004       10.7193365765
  C        14.2541280397        9.6247858996       13.1229031688
  C        14.2527692606        9.6446781316       14.5447388649
  C        13.7428146510       10.7535827028       15.2918206742
  C        22.5129272137        3.2462581333        5.7521385487
  C        23.2274447590        4.3531720828        5.0526194492
  C        24.2281212184        4.0761007193        4.1091453660
  C        24.8550003107        5.1170145389        3.4282000636
  C        24.4974783148        6.4588731207        3.6689422890
  C        23.5246848117        6.7274320415        4.6494813129
  C        22.8936753805        5.6884075185        5.3292989429
  C        25.1031479160        7.5671692676        2.8935764456
  C        25.0849624636        7.5565389929        1.4713499149
  C        24.3911291684        6.5529195168        0.7232272203
  C        38.3002215482       31.9319741663        5.8518783018
  C        37.5625458119       30.8451909312        5.1472741907
  C        36.5960277667       31.1544438501        4.1781639662
  C        35.9693596516       30.1377435541        3.4636535442
  C        36.2955034601       28.7874852768        3.6962145137
  C        37.2322145208       28.4854340591        4.7023357324
  C        37.8624416295       29.5010488751        5.4165032949
  C        35.6851329859       27.7011032046        2.8984842533
  C        35.7114155406       27.7215823828        1.4771359537
  C        36.4203438284       28.7230283129        0.7415168831
  C        25.7080652490        8.6272027726        0.7519195731
  C        25.6911043704        8.6474020684        3.5645794948
  C        38.3287166101       31.9632645652       10.1578115092
  C        37.6033119284       30.8953696095       10.9045292401
  C        36.6730473006       31.2150987041       11.9056148709
  C        36.0530644383       30.2049613465       12.6383655014
  C        36.3484276884       28.8490807370       12.3934452182
  C        37.2587635357       28.5391547973       11.3643449736
  C        37.8810851688       29.5461180471       10.6328363452
  C        35.7259548640       27.7574630141       13.1775283217
  C        35.7319780265       27.7506436704       14.5998221487
  C        36.4301415076       28.7370071291       15.3648261207
  C        46.1355971890       26.6208798232       15.2815838082
  C        46.0882069901       26.5804218887       12.4736815119
  C        22.4646141576        3.2575678804       10.2589688955
  C        23.1653796476        4.3655934836       10.9798236672
  C        24.1710145229        4.0778399333       11.9168645415
  C        24.8054539322        5.1061969384       12.6107313104
  C        24.4556646170        6.4540264402       12.3918100379
  C        23.4732073391        6.7349551033       11.4229526815
  C        22.8343349221        5.7068960122       10.7293019449
  C        25.0902097868        7.5516341340       13.1668832097
  C        25.0795582371        7.5472934740       14.5903136788
  C        24.3859974817        6.5499741727       15.3462008040
  C        26.6128135752       17.8937493144        5.7801327777
  C        25.3119583038       17.9497186807        5.0487518757
  C        25.0586873862       18.9406900585        4.0874123255
  C        23.8448031196       18.9606056478        3.4019914928
  C        22.8503777816       17.9936566543        3.6554736795
  C        23.1017398027       17.0253008383        4.6459502838
  C        24.3155897766       16.9998346918        5.3292596790
  C        21.5769529112       17.9741031031        2.8922991652
  C        21.5773244229       17.9443438529        1.4701153737
  C        22.7832969977       17.8187801111        0.7107848076
  C        34.4764446633       17.2501750195        5.9606436876
  C        35.7640627721       17.1902034687        5.2103480414
  C        35.9681609110       16.1968971159        4.2403140996
  C        37.1385361692       16.1777820605        3.4873822108
  C        38.1370509327       17.1496514358        3.6883778514
  C        37.9371829217       18.1242539924        4.6841954382
  C        36.7625827691       18.1499966962        5.4321297080
  C        39.3864237572       17.1473870855        2.8949645914
  C        39.3793456957       17.1457381562        1.4736013846
  C        38.1700861105       17.2473972488        0.7160405102
  C        20.3306133675       17.9542786423        0.7619543429
  C        20.3522235130       17.9728194977        3.5752745967
  C        34.4993271727       17.2243282916       10.1488822967
  C        35.7958580172       17.1569573302       10.8806283420
  C        36.0254208404       16.1504659183       11.8309086553
  C        37.2025998882       16.1410697906       12.5732882657
  C        38.1818335765       17.1332626062       12.3775835237
  C        37.9613132877       18.1152088866       11.3941739475
  C        36.7791527326       18.1330942745       10.6595035968
  C        39.4258184324       17.1507927637       13.1771328764
  C        39.3996322357       17.1477868932       14.5976978654
  C        38.1796987931       17.2457254033       15.3388397258
  C        35.0934626120       26.6749317001       15.3024364011
  C        35.1274908968       26.6924839823       12.4931610474
  C        26.5753824641       17.8310521208       10.3283350520
  C        25.2603151246       17.8810985480       11.0313538657
  C        24.9980349053       18.8857370393       11.9749874146
  C        23.7787675368       18.9141416847       12.6460294268
  C        22.7934505039       17.9375536618       12.3981055008
  C        23.0502971000       16.9582113240       11.4214568086
  C        24.2697018052       16.9279556686       10.7479508802
  C        21.5296052850       17.9192037884       13.1707065199
  C        21.5529612151       17.9138369277       14.5923253321
  C        22.7714968999       17.8029401719       15.3345688276
  C        14.0469687983       17.8293756404       10.2880663120
  C        15.3516188095       17.8881682688       11.0117764805
  C        15.6072428378       18.8919960817       11.9589863024
  C        16.8166082008       18.9147728095       12.6508126432
  C        17.8044455790       17.9366416491       12.4175149024
  C        17.5536258652       16.9571937800       11.4379901410
  C        16.3436259110       16.9297476942       10.7477306083
  C        19.0734295915       17.9221037589       13.1861345491
  C        19.0715305446       17.9223288201       14.6086262870
  C        17.8647355034       17.8221856848       15.3701223940
  C        46.8068553937       17.2200983894       10.1589399194
  C        45.5189247832       17.1626848504       10.9065962328
  C        45.3125355082       16.1866292222       11.8933666798
  C        44.1324354748       16.1738135786       12.6314972568
  C        43.1308937603       17.1374755749       12.4038309959
  C        43.3347778442       18.0935978693       11.3909825143
  C        44.5154287032       18.1101355505       10.6537663691
  C        41.8788641101       17.1514116949       13.1918309991
  C        41.8837548627       17.1463015584       14.6131165453
  C        43.0929335524       17.2415412710       15.3712459103
  C        20.3180051136       17.9389018952       15.3170193237
  C        20.2976341687       17.9036798093       12.5040369039
  C        46.7878370853       17.2320398814        5.8899096199
  C        45.4854050858       17.1305228525        5.1745860579
  C        45.2639241134       16.1326056741        4.2138930169
  C        44.0767504132       16.1120813158        3.4867193962
  C        43.0837529412       17.0865424294        3.7043994959
  C        43.2952511244       18.0540807917        4.7038788614
  C        44.4834464338       18.0809310155        5.4260413755
  C        41.8389007594       17.1136927909        2.9078288963
  C        41.8634841350       17.1254029475        1.4876202277
  C        43.0833268387       17.2287406664        0.7476726859
  C        46.1533597756       26.6372872242        0.7263455688
  C        46.1626255000       26.6562014368        3.5359778304
  C        14.0461988782       17.8331304366        5.7085488540
  C        15.3670556211       17.9121841905        5.0176860862
  C        15.6346086318       18.9280069366        4.0875468480
  C        16.8625454799       18.9712862311        3.4309538640
  C        17.8518410078       17.9983024797        3.6786673170
  C        17.5910949445       17.0115226055        4.6470757671
  C        16.3648698591       16.9674703413        5.3069977288
  C        19.1193027534       17.9801604520        2.9088533408
  C        19.0954543505       17.9514628077        1.4871977052
  C        17.8763617318       17.8350310555        0.7464625298
  C        28.8007559579       14.1253181141       10.3968413976
  C        28.2013062752       12.9438508294       11.0855007135
  C        28.9301919150       12.2044083214       12.0286342660
  C        28.3397831642       11.1214788115       12.6769161068
  C        27.0058100237       10.7530248032       12.4068339385
  C        26.2994688920       11.4729759177       11.4264768157
  C        26.8876595154       12.5551575545       10.7766282021
  C        26.3409549474        9.6674846895       13.1663355783
  C        26.3214918978        9.6959690235       14.5876556213
  C        26.8144946165       10.8135156958       15.3333908312
  C        32.1561919589       21.2706358087       10.1476390074
  C        32.7354626823       22.4401166367       10.8702349901
  C        31.9833080219       23.1059661265       11.8504732556
  C        32.5462372752       24.1494806237       12.5794175761
  C        33.8762129943       24.5527999216       12.3495195986
  C        34.6090959207       23.9052320790       11.3370807996
  C        34.0487468304       22.8581928357       10.6091251122
  C        34.5035849215       25.6269778569       13.1514047128
  C        34.4945156251       25.5962666109       14.5728996140
  C        33.9804183883       24.4828372230       15.3096563277
  C        25.7113621082        8.6177845868       15.3062425582
  C        25.7078656087        8.6142262659       12.4921626122
  C        32.0966249922       21.2264784948        5.8824835519
  C        32.6746342305       22.3851121964        5.1437591570
  C        31.9311672811       23.0417362963        4.1506266671
  C        32.5021305587       24.0785472492        3.4162923589
  C        33.8290475318       24.4867063675        3.6559184629
  C        34.5544660653       23.8425917405        4.6768814014
  C        33.9888081572       22.8013590965        5.4074344773
  C        34.4631619987       25.5717783169        2.8724175863
  C        34.4725185340       25.5687727799        1.4502956096
  C        33.9687786728       24.4696395675        0.6861966213
  C        40.6259516684       17.1227211728        0.7648881108
  C        40.6094770246       17.1467389870        3.5738386964
  C        28.7237196636       14.0926508812        5.8301238208
  C        28.1081593950       12.9483067828        5.0943885555
  C        28.8376863679       12.2706563856        4.1047421364
  C        28.2612849960       11.2138231986        3.4045557635
  C        26.9364108569       10.8073753504        3.6638720615
  C        26.2228822839       11.4755501775        4.6775907904
  C        26.7984267976       12.5324327420        5.3817612073
  C        26.3018097465        9.7127648422        2.8888873053
  C        26.3012405265        9.7205817064        1.4659677024
  C        26.8010181479       10.8269937741        0.7094261649
  C        18.1355665100        3.1811784208       10.3171911722
  C        17.4062863735        4.2784168275       11.0156965431
  C        16.3904160787        4.0000791214       11.9430714376
  C        15.7427456214        5.0400674734       12.6065911432
  C        16.0948483284        6.3837755580       12.3670700690
  C        17.0843545333        6.6532855359       11.4034255316
  C        17.7334120813        5.6159340103       10.7383570677
  C        15.4705323084        7.4914486391       13.1301525616
  C        15.4857325377        7.4906701844       14.5518651134
  C        16.1872309433        6.4970055813       15.3050235111
  C        42.9458731530       31.8596405037       10.0729690723
  C        43.6463623150       30.7719754627       10.8168499440
  C        44.5915976750       31.0933726832       11.8031762535
  C        45.1973580890       30.0878611371       12.5508462464
  C        44.8712751944       28.7347504340       12.3357621861
  C        43.9457912121       28.4203599133       11.3222462039
  C        43.3369028417       29.4254549921       10.5742010142
  C        45.4888464326       27.6554586854       13.1389648519
  C        45.4928813255       27.6810055847       14.5606643455
  C        44.8056704154       28.6889576584       15.3073052861
  C        14.8567270277        8.5631212720       15.2642526004
  C        14.8753820839        8.5633039929       12.4515815001
  C        42.9464250507       31.9616428510        5.8090551475
  C        43.6917193556       30.8854972999        5.0956195136
  C        44.6560967194       31.1914328502        4.1231174280
  C        45.2776738498       30.1718655384        3.4054090635
  C        44.9541399437       28.8215210643        3.6432251360
  C        44.0209410395       28.5238328675        4.6542652018
  C        43.3926360508       29.5405816201        5.3664363568
  C        45.5631746833       27.7241353357        2.8579557963
  C        45.5333337734       27.7173994824        1.4366567827
  C        44.8269199135       28.7075653954        0.6837019217
  C        35.0827366877       26.6602775235        0.7474382196
  C        35.0800938728       26.6254818323        3.5575075357
  C        18.1488442361        3.2471812216        5.7066904042
  C        17.4303360674        4.3440117340        4.9974143355
  C        16.4150340157        4.0527224398        4.0739397413
  C        15.7667358244        5.0833384955        3.3985361467
  C        16.1214994231        6.4285708359        3.6211362638
  C        17.1129896337        6.7119689773        4.5782796321
  C        17.7606642901        5.6830754204        5.2580718368
  C        15.4909489089        7.5242251748        2.8486829342
  C        15.4967318759        7.5075305769        1.4275494859
  C        16.1934723749        6.5058207483        0.6808387453
  H        10.6724937100       12.4654578054        3.9049068632
  H        11.6948040912       10.5506389632        2.6630633833
  H        15.3921675793       11.1691983903        4.7717673064
  H        14.3516856688       13.0720036189        6.0168832838
  H        13.3763425078       11.6311935912        1.2014081357
  H        50.3229387479       22.7483506332        3.9866781997
  H        49.3198292742       24.6228580443        2.6807148032
  H        45.6425835017       24.1616102591        4.8640889796
  H        46.6635703523       22.2906436015        6.1723476842
  H        47.6300516924       23.5760312413        1.2462387161
  H        14.8726176689        8.5884868934        4.6086018079
  H        50.2872016819       22.7025840734       12.0605696212
  H        49.2693250816       24.5755203248       13.3605833720
  H        45.6109163880       24.1098063798       11.1457884313
  H        46.6530066158       22.2543753081        9.8315285485
  H        47.6080304503       23.5520176850       14.7968960490
  H        40.6618202521       17.1476319308       11.4241615336
  H        48.6872714236       14.0949448932        7.8001040186
  H        10.6813934310       12.4663101755       12.0929697585
  H        11.6898067278       10.5244185421       13.2966695662
  H        15.3941804179       11.1598630012       11.2063543277
  H        14.3655692714       13.0882085825        9.9911041497
  H        13.3760375025       11.6222191636       14.7531840256
  H        47.9302252354       14.2186332630        9.7107796991
  H        47.7801807508       14.3741467212        6.4955461329
  H        49.0851686916       18.5527468714       10.8677573056
  H        10.4164350766       14.1342139988        7.9987534136
  H        24.4931405158        3.0382910439        3.9194521722
  H        25.6313060121        4.8999638922        2.6976555755
  H        23.2398014770        7.7595329809        4.8430560527
  H        22.1211203132        5.8883706900        6.0677954110
  H        23.8300543787        5.7949902875        1.2620776858
  H        36.3611943634       32.1988492262        3.9871405741
  H        35.2195366267       30.3800386441        2.7137637951
  H        37.4909151068       27.4450766022        4.8882418699
  H        38.6113770903       29.2768958156        6.1723797630
  H        36.9888966933       29.4692473818        1.2887991586
  H        25.7202132723        8.6326086146        4.6526346349
  H        36.4560564250       32.2618136271       12.1061794400
  H        35.3256772260       30.4591516281       13.4061916648
  H        37.4997071565       27.4962453793       11.1693201059
  H        38.6052127441       29.3112666596        9.8564276221
  H        37.0073677915       29.4933814436       14.8408062850
  H        46.1097998100       26.5879274263       11.3856488477
  H        44.6682091724       35.1161593124        7.8140017564
  H        24.4467355663        3.0389786776       12.0837199425
  H        25.5880798841        4.8734016366       13.3297300496
  H        23.1898751964        7.7700690393       11.2431426823
  H        22.0605739783        5.9237942005        9.9963672695
  H        23.8202332084        5.7905332098       14.8143222839
  H        44.9537261252       34.3903888916        9.6951880285
  H        44.9013686326       34.2067906996        6.4905659442
  H        40.6662852514       33.2096128599       10.8532463808
  H        23.1509291752        1.9581296586        8.0052079532
  H        25.8217819307       19.6911065359        3.8920076547
  H        23.6526792524       19.7350235542        2.6624220644
  H        22.3461661073       16.2693387291        4.8498958722
  H        24.5206716592       16.2390556721        6.0786989133
  H        23.7247213681       17.7044295569        1.2401476249
  H        35.1919222700       15.4517611416        4.0847880249
  H        37.2959992236       15.4016102978        2.7416179072
  H        38.7020136350       18.8818975159        4.8418135372
  H        36.5894038656       18.9174151711        6.1829886315
  H        37.2288499824       17.3572069583        1.2472856504
  H        20.3591786873       18.0174345507        4.6629672680
  H        35.2656231804       15.3876319186       11.9829081112
  H        37.3790186679       15.3599957291       13.3096099080
  H        38.7134923038       18.8860960046       11.2399340163
  H        36.5853431561       18.9077136668        9.9213321637
  H        37.2456407982       17.3532358113       14.7946175800
  H        35.1024174740       26.7191544842       11.4054339013
  H        28.5140853941       21.0887664250        7.9941837668
  H        25.7624470229       19.6352311967       12.1668852991
  H        23.5757027993       19.6971574000       13.3733887654
  H        22.2979521274       16.1972821167       11.2242562804
  H        24.4838795422       16.1596425152       10.0089487396
  H        23.7036833347       17.6759638845       14.7921680974
  H        28.9938812807       21.7199787401        9.7700902965
  H        29.1162752458       21.7670950799        6.6060666432
  H        32.1062861641       18.5454576523       10.9549550562
  H        27.4113567184       19.0845510979        8.0905986637
  H        14.8476997158       19.6498182944       12.1375729126
  H        17.0114363699       19.6993235061       13.3788390324
  H        18.3060788257       16.1942785987       11.2489511854
  H        16.1382287448       16.1603055283       10.0072967966
  H        16.9226276404       17.7022055412       14.8431171426
  H        46.0937048082       15.4520741685       12.0743466044
  H        43.9709615811       15.4094760114       13.3884283440
  H        42.5687014389       18.8452738595       11.2124390811
  H        44.6911368033       18.8619416621        9.8879771755
  H        44.0341509289       17.3578289612       14.8416234535
  H        20.2915340136       17.9314727204       11.4158468413
  H        46.0377415989       15.3887271555        4.0385553812
  H        43.9057852865       15.3386298378        2.7411316752
  H        42.5322929372       18.8101097016        4.8771349238
  H        44.6705374216       18.8464157962        6.1750061808
  H        44.0172734365       17.3338046796        1.2921181310
  H        46.1996454865       26.6828246558        4.6234158885
  H        52.7412997980       21.0627196191        8.1947127781
  H        14.8701174550       19.6776745299        3.8957383821
  H        17.0682278507       19.7622335401        2.7128819499
  H        18.3460302525       16.2537839241        4.8466601402
  H        16.1492362980       16.1923947336        6.0384684086
  H        16.9430812923       17.7247614038        1.2904587946
  H        52.3228224888       21.6734955287        6.2942660566
  H        52.0134646129       21.7022174388        9.4957124146
  H        49.0687484272       18.6080537558        5.2040883810
  H        13.2478540016       19.0162321496        7.9773037641
  H        29.9586501365       12.4915876532       12.2371130350
  H        28.9075476469       10.5479363320       13.4064839574
  H        25.2686749395       11.2002401884       11.2096562928
  H        26.3380351139       13.1309461892       10.0360969334
  H        27.1756265763       11.6833735560       14.7928743949
  H        30.9608242548       22.7837356359       12.0342088918
  H        31.9577016932       24.6664251260       13.3342926823
  H        35.6382258796       24.2077708658       11.1546638284
  H        34.6197607344       22.3330593415        9.8469542954
  H        33.6185627270       23.6174815212       14.7621831500
  H        25.7397583923        8.5950002156       11.4041629497
  H        30.9106147392       22.7180006882        3.9583643465
  H        31.9191610698       24.5886448360        2.6525219853
  H        35.5818358807       24.1465046485        4.8664695276
  H        34.5544566961       22.2813184144        6.1770313432
  H        33.5978576477       23.5941133386        1.2115215487
  H        40.6028404443       17.1173626948        4.6616970242
  H        32.4974307412       14.1440260068        8.2581002188
  H        29.8577944460       12.5881034645        3.9022310776
  H        28.8382748695       10.6844169617        2.6494919568
  H        25.1974074797       11.1772815147        4.8860817014
  H        26.2417868860       13.0613000784        6.1520009747
  H        27.1504545341       11.7078376062        1.2400420763
  H        33.3189723924       14.2510693282        6.4843692752
  H        33.4064435624       14.4144059598        9.5884475549
  H        32.1302986079       18.4991785778        5.1241681495
  H        30.2200170231       14.1972842486        8.0757403064
  H        16.1181858801        2.9635981567       12.1293414784
  H        14.9531846335        4.8207227512       13.3221414198
  H        17.3669565050        7.6861447133       11.2104671163
  H        18.5155970001        5.8186027224       10.0106737379
  H        16.7538216644        5.7396946604       14.7715186807
  H        44.8276373511       32.1404838495       11.9775191325
  H        45.9370365768       30.3416909720       13.3069485403
  H        43.6834618374       27.3782409332       11.1518733449
  H        42.6005840598       29.1900655250        9.8092643311
  H        44.2303126094       29.4367296862       14.7690101359
  H        14.8517546947        8.5466557253       11.3633564337
  H        44.8994648605       32.2341292737        3.9315275272
  H        46.0244313855       30.4131383857        2.6520379841
  H        43.7642613471       27.4840761186        4.8460581940
  H        42.6463961387       29.3177654387        6.1251304126
  H        44.2683733536       29.4704229371        1.2182878434
  H        35.0432980970       26.6338164851        4.6452008449
  H        36.6050760422       35.1344819593        8.1803350687
  H        16.1438419106        3.0131580422        3.9043354129
  H        14.9743261824        4.8565008236        2.6885420874
  H        17.3965993133        7.7474326967        4.7550368466
  H        18.5436370911        5.8935746336        5.9827174357
  H        16.7649319202        5.7555870453        1.2192590047
  H        36.2788661747       34.4828597299        6.2732324284
  H        36.3807369269       34.2093549071        9.4992611066
  H        40.5802939556       33.2030710734        5.1539695167
  H        17.4711582687        1.9479717466        7.9742465164
  H        29.1463181675       19.1812167340       12.5175702575
  H        28.8625447423       18.6879928485        3.5692707419
  H        32.0066673325       15.3333037827        3.7342193602
  H        32.2985134521       16.1912491076       12.5310714673
  H        28.4390582681       17.7045043922       14.7013139986
  H        30.4948237389       15.2421075278       14.1465554248
  H        31.2702535976       20.4438169029        0.3863739886
  H        28.1577079195       16.2496625581        1.7406598060
  H        31.3170552524       20.6742345294       14.8139474446
  H        18.8522990131        0.8684294436       12.3354183538
  H        40.5279417427       35.2290318651        3.9519374036
  H        42.3248151173       34.4194522150        3.5904313779
  H        22.0875286702        0.6920935561       12.3517843125
  H        11.5963440489       18.7133884151       12.3830795043
  H        52.2648985176       18.4312890741        3.6769855042
  H        49.2552278954       16.4767971496        3.5845884864
  H        10.1507041353       15.7981960917       12.2925569534
  H        50.8501916550       17.6923978250        3.9541681853
  H        10.0463585112       17.3945684209       12.0519341819
  H        20.2131977790        0.0019052197       12.0422334047
  H        39.1837959351       36.1244069324        3.6860234912
 Ni        30.1841871149       16.4884861478        2.9135124927
 Ni        29.9271122882       16.3616264069        0.1693388854
 Ni        30.2223800081       18.6245020579       -0.1617729045
 Ni        30.3554222986       17.4257294684       13.3182686650
  O        10.6500655947       14.3650531550        5.4858599697
  O        12.6132621218       14.6575018160        6.5839161765
  O        49.1481918308       16.8458164257        7.9897688859
  O        50.3503576714       20.9357736037        5.6479802987
  O        48.3486479600       20.5933372017        6.6658653065
  O        11.0519863376       17.0536546943        6.5007894217
  O        50.3210522428       20.8816899534       10.4069147115
  O        48.3467756405       20.5868418542        9.3272376195
  O        49.5442975839       18.2484169535       10.0682762250
  O        12.3593093293       18.6246151086        7.9996646345
  O        48.6932911489       14.1485128878        6.7513476905
  O         8.2099429943       14.2103597504        9.3225346303
  O        10.7354090487       14.5067043704       10.6643207992
  O        12.5718463731       14.5828062842        9.3284848514
  O        22.8451125357        2.0446461800        5.4867306994
  O        21.6064248148        3.5930993626        6.5893551622
  O        42.0582863707       34.1376404242        7.9790785309
  O        37.9816992374       33.1403918856        5.5732542476
  O        39.2177211824       31.5765790627        6.6663953247
  O        20.3087813236        1.0404194953        6.5024306712
  O        38.0251779884       33.1873877390       10.4147134254
  O        39.2182968309       31.5833401679        9.3277823251
  O        40.6523966334       33.7697052891       10.0602209088
  O        18.2556832479        1.3765608800        7.9968566135
  O        44.6221590998       35.1006201933        6.7587735617
  O        24.2054015767        0.0000568232        9.3207796918
  O        22.7535478264        2.0584112575       10.5846503493
  O        21.6259741817        3.5978210698        9.3458650450
  O        27.5161212242       18.7583982651        5.4827516523
  O        26.7320070031       16.9908992713        6.6694836303
  O        30.6619450632       19.4064245730        8.0565852605
  O        33.6254928180       16.3286143359        5.7478085931
  O        34.3056026776       18.2495567575        6.7447302994
  O        29.5705704143       17.0746697220        6.5735713973
  O        33.6607654153       16.2736038050       10.3374820510
  O        34.3085751850       18.2454867821        9.4071434242
  O        31.7154256145       18.3239680492       10.0924442217
  O        30.3229859606       15.1629279698        8.0859403838
  O        28.5517690299       21.0344066940        6.9109842112
  O        28.5149731389       20.9537981435        9.4108552644
  O        27.4653054611       18.6804021346       10.6607089856
  O        26.6955808374       16.9325627507        9.4148642361
  O        13.1486140572       18.6929344783       10.5871639122
  O        13.9193998818       16.9161807743        9.4048590135
  O        50.5967399086       19.3503733243        8.0205811960
  O        47.6833386838       16.3269090784       10.4170852330
  O        46.9525450889       18.1762672667        9.3239923483
  O        11.0701676459       17.0153111620        9.4895983780
  O        47.6765500940       16.3352663253        5.6531660723
  O        46.9299751152       18.2357917677        6.6658028259
  O        49.5695412055       18.3177226562        5.9824112530
  O        10.3187438572       15.1000308445        7.9970583187
  O        52.6707647306       21.0278607356        9.2418249058
  O        12.1468726349       20.8912715108        6.6732995682
  O        13.1076433987       18.6139204802        5.3255682834
  O        13.9575442372       16.9875391882        6.6645067545
  O        29.9684450676       14.5125028791       10.7423218765
  O        28.0823416443       14.6597600619        9.4840188318
  O        32.1046875718       16.8966709448        8.0722439205
  O        30.9526128645       20.9509569942       10.4162937800
  O        32.9206731284       20.6569759164        9.3251914093
  O        29.5757904913       17.0777725153        9.5791637014
  O        30.8679289594       20.9338135841        5.6602935001
  O        32.8746245013       20.5874257420        6.6641199811
  O        31.6130009966       18.2525973259        5.9081240225
  O        28.2950919574       18.6813714974        8.0780427146
  O        32.4873058271       14.2143092366        9.3295814862
  O        32.4072410453       14.2185642840        6.8209263158
  O        29.9086154376       14.4349284535        5.5081507492
  O        28.0067378980       14.6497198749        6.7408403064
  O        17.8893061944        1.9667755579       10.6627683573
  O        18.9564155321        3.5272330065        9.4079517877
  O        39.1686465031       34.1388922415        7.9971865559
  O        43.2802547312       33.0590284595       10.3317114106
  O        42.0345110748       31.5064790741        9.2416607811
  O        20.3179974921        1.0371961108        9.4799955366
  O        43.2760065273       33.1825694112        5.5749230529
  O        42.0051854557       31.5841267307        6.5830358026
  O        40.5792401617       33.7754004911        5.9363426856
  O        22.3676099353        1.3851477015        7.9980681931
  O        36.6727401662       35.0999630443        9.2330931097
  O        16.4456845076        0.0646858998        6.6684411008
  O        17.9365582460        2.0435364213        5.3264100664
  O        18.9193288019        3.5931784249        6.6660304018
  O        29.5732859595       19.2668172976        3.9132070674
  O        29.9017862334       18.8320780687       12.0016188114
  O        31.5675624244       16.1290405229        4.0852098861
  O        31.5053419400       16.4888012831       12.0559748994
  O        28.9147236643       16.8570627343        1.6521966588
  O        30.8311997524       16.0501086334       14.5835045300
  O        30.7115556441       20.6585141919       15.5766823676
  O        31.2129339279       18.9084018057        1.4253969612
  O        29.0791783841       18.3815477104       14.3983770339
  O        39.4568458260       35.2438892761        4.0019634557
  O        19.1402178558        0.0039629778       11.9906415820
  O        41.9696300513       35.1727847107        4.0872997415
  O        21.6911921800       -0.0692555887       11.8959204084
  O        51.3651223485       18.6142818408        4.0053411363
  O        10.7508305039       18.7472149642       11.9049729426
  O        50.0797073029       16.4127674467        4.0917636325
  O         9.5247120171       16.4830145054       11.9911892939
 Zr         9.2977778032       16.0525868791        6.1826093484
 Zr        49.8370811520       16.0065913694        9.7462633986
 Zr        22.0733314586        0.0306472643        6.1889898225
 Zr        42.4610574770       35.1541712362        9.8013788595
 Zr        29.5995229497       19.1276660086        6.3126966683
 Zr        29.5938715069       19.1667217629        9.8895382987
 Zr        11.0388331859       19.0517710484        9.8278220452
 Zr        11.0447967882       19.1546993262        6.2508098810
 Zr        31.3622625087       16.1187589366        9.8893009940
 Zr        31.3873612061       16.0171390082        6.2915009742
 Zr        18.6011888149       -0.0007328667        9.7629381731
 Zr        18.5068617423       -0.0064864493        6.2139023296
 Zr        12.3030309860       16.3235893979        7.9901857952
 Zr        48.6180548280       18.8334142431        8.0104832049
 Zr        20.3165085315        2.4748163999        7.9912147353
 Zr        40.6437903572       32.6876305498        7.9784532189
 Zr        28.3375566670       16.3538137945        8.0836959509
 Zr        32.6421782495       18.8616980543        8.0586743493
  H        29.2741398856       15.6396859357        3.6038137304
  H        30.2703895009       19.2288032635        3.2016507899
  H        32.0218829303       18.3693350923        1.4227311723
