     573
 i =      189, E =     -4762.8056566473
  C        11.8587459571       14.0535516777        5.7415574543
  C        12.4562520882       12.8905230005        5.0233602712
  C        11.7046351641       12.1718004080        4.0814899495
  C        12.2809981656       11.1095961998        3.3891229412
  C        13.6214789544       10.7396141027        3.6170828205
  C        14.3545278841       11.4429174576        4.5908347401
  C        13.7816546280       12.5079013008        5.2823437107
  C        14.2610769552        9.6490287697        2.8436444956
  C        14.2565696645        9.6570539483        1.4219406837
  C        13.7433750930       10.7591723509        0.6680421710
  C        49.1268112754       21.2332206288        5.8796588266
  C        48.5500853282       22.4011371017        5.1525471490
  C        49.3001324727       23.0685770194        4.1716473898
  C        48.7331855621       24.1077471020        3.4385087701
  C        47.4025887015       24.5092442201        3.6670566437
  C        46.6715816940       23.8602132830        4.6804195222
  C        47.2340552334       22.8152773234        5.4097058113
  C        46.7723657722       25.5869689378        2.8698088778
  C        46.7613721829       25.5573712907        1.4480502654
  C        47.2611869798       24.4422142565        0.7045755192
  C        14.8606165608        8.5707851036        0.7086615391
  C        14.8917993939        8.5970341741        3.5202757610
  C        49.1131740363       21.2034452121       10.1454592087
  C        48.5277894112       22.3647175871       10.8727073721
  C        49.2670677526       23.0256474387       11.8654399876
  C        48.6906831665       24.0601961884       12.5968595855
  C        47.3601703129       24.4567262041       12.3587746784
  C        46.6396343613       23.8114943259       11.3355566640
  C        47.2132356564       22.7755779633       10.6038296120
  C        46.7217489430       25.5317449827       13.1497530852
  C        46.7335584983       25.5281659299       14.5714494102
  C        47.2488848823       24.4288927619       15.3278166475
  C        40.6358029584       17.1372112729       15.3204653507
  C        40.6570459331       17.1668943864       12.5117120328
  C        11.8829404124       14.0865435747       10.2853759884
  C        12.4723573217       12.9107356300       10.9896356792
  C        11.7149339539       12.1776668727       11.9159132753
  C        12.2815625056       11.0952640899       12.5843968166
  C        13.6203310357       10.7214604191       12.3524289113
  C        14.3581776372       11.4368104279       11.3913652940
  C        13.7926883516       12.5179116583       10.7186151528
  C        14.2540316821        9.6247811234       13.1228558243
  C        14.2528250950        9.6447736091       14.5446956034
  C        13.7428859048       10.7536806769       15.2917868196
  C        22.5114532995        3.2455716177        5.7533874320
  C        23.2231537480        4.3541602760        5.0552069850
  C        24.2242608663        4.0807971670        4.1114786139
  C        24.8468337241        5.1247558762        3.4317009461
  C        24.4837243835        6.4645306921        3.6747786644
  C        23.5109853043        6.7294660206        4.6558850483
  C        22.8842628675        5.6874778922        5.3343668706
  C        25.0834691607        7.5748651858        2.8995058556
  C        25.0612251488        7.5640114140        1.4778130937
  C        24.3653725651        6.5597918974        0.7323257893
  C        38.3021199904       31.9306349278        5.8504188826
  C        37.5709014345       30.8413672482        5.1431732090
  C        36.6102945850       31.1452159580        4.1665502817
  C        35.9925676633       30.1246807864        3.4494064936
  C        36.3213110737       28.7758733991        3.6874697963
  C        37.2515914960       28.4794414187        4.7012683060
  C        37.8732324298       29.4986788565        5.4174349765
  C        35.7198490588       27.6844399189        2.8900677115
  C        35.7492273499       27.7010984778        1.4688058336
  C        36.4541863744       28.7045411697        0.7321420267
  C        25.6823227957        8.6344027825        0.7569000381
  C        25.6697909302        8.6562938530        3.5696674848
  C        38.3290961701       31.9624094720       10.1569162615
  C        37.6076426009       30.8902959979       10.9005050738
  C        36.6787085931       31.2010039998       11.9054049426
  C        36.0676000839       30.1840394347       12.6362319169
  C        36.3710183466       28.8308701065       12.3855569539
  C        37.2781851325       28.5301075910       11.3510663360
  C        37.8914677445       29.5435974674       10.6215662359
  C        35.7611051596       27.7328677595       13.1698317443
  C        35.7702037960       27.7260450127       14.5918669938
  C        36.4638893222       28.7166687445       15.3554332288
  C        46.1356454363       26.6208599841       15.2815631821
  C        46.0878052470       26.5800822298       12.4736634253
  C        22.4609477239        3.2566540223       10.2590249044
  C        23.1539779093        4.3659010849       10.9834595717
  C        24.1543242762        4.0808847567       11.9266052489
  C        24.7808544795        5.1114629956       12.6237612839
  C        24.4277884596        6.4575834329       12.4006424389
  C        23.4505283972        6.7357688815       11.4259987177
  C        22.8192537464        5.7054826754       10.7295760829
  C        25.0570853838        7.5572612095       13.1750432820
  C        25.0485150212        7.5538914534       14.5980933628
  C        24.3568023500        6.5564882030       15.3554887409
  C        26.6505491632       17.8980311758        5.7431240626
  C        25.3473860162       17.9578519350        5.0105546599
  C        25.0724947622       18.9647319556        4.0719184874
  C        23.8508359055       18.9889904694        3.3994195235
  C        22.8660260838       18.0098948242        3.6440748555
  C        23.1377986856       17.0241864439        4.6110974404
  C        24.3594007462       16.9955417051        5.2805935378
  C        21.5860737442       17.9921711977        2.8900821732
  C        21.5826689856       17.9588870741        1.4683334091
  C        22.7872599589       17.8318343934        0.7070085863
  C        34.4735211058       17.2505247924        5.9586981399
  C        35.7603952980       17.1872126038        5.2100016584
  C        35.9417954387       16.2235957980        4.2057471316
  C        37.1133464840       16.2046435938        3.4543198898
  C        38.1336010125       17.1468136147        3.6883811176
  C        37.9540939790       18.0902626509        4.7183996789
  C        36.7798556367       18.1163703413        5.4661865746
  C        39.3825882235       17.1478299754        2.8946172764
  C        39.3769848180       17.1585127606        1.4726514990
  C        38.1704598122       17.2789337052        0.7135244255
  C        20.3344473835       17.9645263117        0.7632584123
  C        20.3632975291       17.9908301136        3.5769955999
  C        34.5030024604       17.2153115014       10.1464915630
  C        35.7997350250       17.1507208996       10.8757439255
  C        36.0089362048       16.1707914164       11.8574107942
  C        37.1866490532       16.1627128156       12.5985944645
  C        38.1834107206       17.1312273829       12.3736448282
  C        37.9810370516       18.0862823418       11.3599291580
  C        36.7994546567       18.1023906571       10.6245879532
  C        39.4257723290       17.1536588313       13.1749943635
  C        39.3994437758       17.1622909261       14.5960139607
  C        38.1806771452       17.2782908914       15.3363059449
  C        35.1395960709       26.6465651172       15.2955078470
  C        35.1704792335       26.6627413527       12.4864341543
  C        26.5707902676       17.8293446188       10.3243234229
  C        25.2545681344       17.8786897857       11.0258316636
  C        24.9940593303       18.8822059997       11.9711979122
  C        23.7749629754       18.9111988962       12.6422747519
  C        22.7889068272       17.9351935697       12.3946053363
  C        23.0444175977       16.9564868640       11.4169547537
  C        24.2632449176       16.9265526525       10.7420488351
  C        21.5265252697       17.9172973373       13.1695039347
  C        21.5525478465       17.9167236538       14.5910545726
  C        22.7727919831       17.8096262169       15.3310906541
  C        14.0457395245       17.8285246734       10.2888063002
  C        15.3493927532       17.8853126172       11.0152135069
  C        15.6055416085       18.8901783129       11.9610442229
  C        16.8142081035       18.9120564804       12.6541939256
  C        17.8004627017       17.9319193092       12.4232278869
  C        17.5486942635       16.9505135035       11.4460130467
  C        16.3394391851       16.9241433940       10.7543960571
  C        19.0703491229       17.9188589563       13.1903438794
  C        19.0712776214       17.9235412893       14.6127961992
  C        17.8662214998       17.8250289225       15.3773012506
  C        46.8064366611       17.2195233040       10.1589117965
  C        45.5189421289       17.1610129601       10.9061583484
  C        45.3143919876       16.1862647670       11.8947468262
  C        44.1346235423       16.1727815608       12.6333239489
  C        43.1312913838       17.1342664680       12.4042929429
  C        43.3330988456       18.0884240493       11.3890204577
  C        44.5134083514       18.1058684926       10.6514462936
  C        41.8793360989       17.1493512222       13.1923131533
  C        41.8835313964       17.1482707634       14.6136437237
  C        43.0922818133       17.2408033899       15.3725137333
  C        20.3191472041       17.9436454863       15.3183953950
  C        20.2930969589       17.8991369967       12.5056923288
  C        46.7867132859       17.2313138425        5.8898252291
  C        45.4839752381       17.1277406796        5.1756223119
  C        45.2640604178       16.1312065519        4.2128627316
  C        44.0764824350       16.1090342121        3.4862597300
  C        43.0807080476       17.0803878065        3.7059336630
  C        43.2905268968       18.0458415094        4.7080291509
  C        44.4791064576       18.0745392140        5.4296576526
  C        41.8360167493       17.1087300345        2.9085012525
  C        41.8614481514       17.1259331342        1.4881331327
  C        43.0818699634       17.2273171916        0.7490044540
  C        46.1534492271       26.6373075381        0.7263135628
  C        46.1624100918       26.6560687251        3.5359527834
  C        14.0478890543       17.8345261073        5.7091622312
  C        15.3712127982       17.9171014123        5.0202976222
  C        15.6394018755       18.9349782801        4.0924228781
  C        16.8687025442       18.9818621242        3.4378999707
  C        17.8600676666       18.0105971922        3.6849183567
  C        17.5986512645       17.0216744949        4.6511032791
  C        16.3709535847       16.9741288301        5.3089935874
  C        19.1279064953       17.9947084821        2.9136712700
  C        19.1010731410       17.9621815607        1.4917639272
  C        17.8805578304       17.8420818784        0.7535787543
  C        28.8098095572       14.0937361583       10.3879745895
  C        28.1926472970       12.9216744926       11.0766610705
  C        28.9155051314       12.1774111392       12.0209239465
  C        28.3139701383       11.1052614552       12.6755025266
  C        26.9758197757       10.7518280631       12.4083015468
  C        26.2746266473       11.4759556884       11.4274936249
  C        26.8734984546       12.5494052608       10.7726175927
  C        26.3061265575        9.6725532594       13.1705330216
  C        26.2916698006        9.7017387924       14.5916937626
  C        26.7932000384       10.8165571219       15.3359060212
  C        32.1791731539       21.2476241940       10.1483448856
  C        32.7722950924       22.4135149602       10.8653914182
  C        32.0231930488       23.0882125392       11.8418013786
  C        32.5930613347       24.1269393017       12.5713717801
  C        33.9266659650       24.5185950926       12.3446287714
  C        34.6577742873       23.8623341663       11.3366220674
  C        34.0909330598       22.8177452114       10.6093376916
  C        34.5552235744       25.5931243840       13.1457705418
  C        34.5474834639       25.5631857848       14.5673868331
  C        34.0393855231       24.4473089130       15.3048441824
  C        25.6818206974        8.6247427418       15.3117383209
  C        25.6715658917        8.6198510744       12.4981301581
  C        32.1042498100       21.2332316072        5.8896439168
  C        32.6932535408       22.3853562181        5.1492556241
  C        31.9582992302       23.0434235295        4.1509133480
  C        32.5393040349       24.0701828931        3.4109828909
  C        33.8685198601       24.4692858190        3.6518830872
  C        34.5863174521       23.8245768490        4.6777354980
  C        34.0108012848       22.7913703881        5.4123675773
  C        34.5080617470       25.5494643327        2.8661566702
  C        34.5216272098       25.5414367454        1.4441122834
  C        34.0254879030       24.4374473787        0.6817376565
  C        40.6241499003       17.1302866341        0.7646842063
  C        40.6061383439       17.1386484167        3.5735845366
  C        28.7173736923       14.0983685095        5.8218341022
  C        28.0976829369       12.9558864473        5.0860353122
  C        28.8319118916       12.2524038118        4.1182558352
  C        28.2501941911       11.1975795277        3.4200657776
  C        26.9156726434       10.8154334159        3.6639169720
  C        26.1968792405       11.5059025615        4.6582566925
  C        26.7774618390       12.5632912618        5.3576240808
  C        26.2790618215        9.7202791154        2.8917631400
  C        26.2789784168        9.7267251491        1.4692653249
  C        26.7840856139       10.8302309955        0.7120715271
  C        18.1355094231        3.1810365687       10.3172807299
  C        17.4062141420        4.2783123121       11.0158417377
  C        16.3905692490        4.0000188397       11.9434522398
  C        15.7428569784        5.0400487846       12.6068836150
  C        16.0948095425        6.3837461209       12.3671353895
  C        17.0841471417        6.6531991132       11.4033102295
  C        17.7332341952        5.6158090423       10.7383361505
  C        15.4705545818        7.4914883414       13.1301647227
  C        15.4859149772        7.4908312062       14.5518709393
  C        16.1875483381        6.4972655919       15.3050332964
  C        42.9459620464       31.8595291467       10.0729543490
  C        43.6463279550       30.7718906418       10.8168746168
  C        44.5919256513       31.0931971460       11.8028978866
  C        45.1976311939       30.0876376913       12.5505352851
  C        44.8711538022       28.7345703303       12.3357246748
  C        43.9452391299       28.4202466637       11.3225826216
  C        43.3364302509       29.4253991029       10.5745511738
  C        45.4887032977       27.6552702708       13.1389371882
  C        45.4930051040       27.6810102557       14.5606260613
  C        44.8059882358       28.6891023418       15.3072463600
  C        14.8569232936        8.5633068538       15.2642313732
  C        14.8751914201        8.5632085256       12.4515756284
  C        42.9464441427       31.9615298237        5.8090073165
  C        43.6916994473       30.8854372139        5.0955750591
  C        44.6563382509       31.1913757528        4.1233159292
  C        45.2778776694       30.1718125069        3.4055856762
  C        44.9541085254       28.8214747792        3.6431553284
  C        44.0205736371       28.5237783086        4.6538814587
  C        43.3923005745       29.5405183268        5.3660859099
  C        45.5631761177       27.7241047301        2.8579021986
  C        45.5335348749       27.7174892879        1.4366055732
  C        44.8272804973       28.7077544741        0.6836371405
  C        35.1278014632       26.6345327514        0.7404037100
  C        35.1184402562       26.6073773839        3.5502499977
  C        18.1486184875        3.2470009029        5.7066567915
  C        17.4300235513        4.3438496130        4.9973594558
  C        16.4149453043        4.0525938601        4.0736494075
  C        15.7667027629        5.0832400803        3.3982157511
  C        16.1212257599        6.4284809141        3.6210935838
  C        17.1124576914        6.7118300862        4.5785119874
  C        17.7600703592        5.6829163816        5.2583259813
  C        15.4907796734        7.5242058298        2.8486647030
  C        15.4968482091        7.5076830297        1.4275356675
  C        16.1937207105        6.5060521895        0.6808451510
  H        10.6725676323       12.4660848744        3.9043402380
  H        11.6947414946       10.5512554903        2.6624485492
  H        15.3914584198       11.1680830825        4.7727779334
  H        14.3509981201       13.0709822136        6.0179826808
  H        13.3761971573       11.6312175626        1.2013675526
  H        50.3228796633       22.7486284683        3.9869816884
  H        49.3196502390       24.6231066874        2.6809816855
  H        45.6420049426       24.1607832129        4.8634494392
  H        46.6629739082       22.2898923698        6.1716478041
  H        47.6295249149       23.5757570920        1.2462682475
  H        14.8719536014        8.5881532665        4.6085790584
  H        50.2872076717       22.7029983688       12.0601793581
  H        49.2690835913       24.5758387670       13.3602281075
  H        45.6100964096       24.1084265316       11.1467380390
  H        46.6522895734       22.2531508229        9.8325371596
  H        47.6074452598       23.5516835965       14.7969175735
  H        40.6640684615       17.1343545082       11.4239544758
  H        48.6870267699       14.0948148267        7.8000414611
  H        10.6814804498       12.4667797673       12.0933839421
  H        11.6898037541       10.5249398116       13.2971783227
  H        15.3935439905       11.1587988901       11.2052570825
  H        14.3648683127       13.0871292291        9.9898405198
  H        13.3759354690       11.6222427161       14.7531503275
  H        47.9301033360       14.2182587835        9.7106617954
  H        47.7800082597       14.3731850683        6.4951124597
  H        49.0841132312       18.5524842719       10.8673848183
  H        10.4160012745       14.1342728933        7.9985794326
  H        24.4923081874        3.0439840698        3.9206216327
  H        25.6233082483        4.9122222400        2.7000235341
  H        23.2226484094        7.7604364654        4.8502681527
  H        22.1110253468        5.8828803421        6.0732888667
  H        23.8058210910        5.8021596804        1.2731258334
  H        36.3732624069       32.1884138647        3.9715113712
  H        35.2473820542       30.3628753301        2.6936265062
  H        37.5122257423       27.4404004509        4.8917622363
  H        38.6175418106       29.2786166581        6.1790195048
  H        37.0194100191       29.4539260589        1.2785269725
  H        25.6996613759        8.6427214826        4.6577092452
  H        36.4563898122       32.2456572450       12.1109898496
  H        35.3416141033       30.4305773234       13.4078454482
  H        37.5246046670       27.4894104076       11.1511415934
  H        38.6141766371       29.3162595660        9.8417100277
  H        37.0375859257       29.4749953408       14.8303897067
  H        46.1090752934       26.5873594744       11.3856236679
  H        44.6682668885       35.1161792560        7.8138802757
  H        24.4320189501        3.0428344643       12.0951082475
  H        25.5602825856        4.8823257161       13.3473553430
  H        23.1657722995        7.7700852987       11.2439920508
  H        22.0491025381        5.9185153736        9.9918000559
  H        23.7897868746        5.7970714561       14.8248969160
  H        44.9538307992       34.3904059211        9.6951858608
  H        44.9014278448       34.2067519222        6.4905166936
  H        40.6661619638       33.2091920546       10.8532334142
  H        23.1504828361        1.9580647723        8.0055981321
  H        25.8207682143       19.7320979273        3.8872552019
  H        23.6439799862       19.7766980664        2.6779779390
  H        22.3911729308       16.2576647122        4.8086293097
  H        24.5772648918       16.2223742698        6.0134073746
  H        23.7292561625       17.7201939016        1.2357572776
  H        35.1449703768       15.5069260105        4.0204400983
  H        37.2535062454       15.4511288582        2.6824105267
  H        38.7347148965       18.8255288557        4.9022590570
  H        36.6234960447       18.8610057747        6.2432306518
  H        37.2299221014       17.4026726267        1.2426844848
  H        20.3731159410       18.0360056492        4.6646838563
  H        35.2280400178       15.4363039683       12.0390724969
  H        37.3478218726       15.4024450902       13.3596624326
  H        38.7458011642       18.8398029826       11.1835964990
  H        36.6190433823       18.8582955608        9.8640130645
  H        37.2481212346       17.4004526340       14.7923814439
  H        35.1430206692       26.6889184747       11.3987486410
  H        28.5107119279       21.0839111767        8.0171685310
  H        25.7606327898       19.6290694327       12.1649538638
  H        23.5724769294       19.6940161926       13.3699757812
  H        22.2917751779       16.1957713649       11.2200032798
  H        24.4765394694       16.1588884522       10.0020537269
  H        23.7035621363       17.6806250537       14.7867735405
  H        28.9907837165       21.7226335496        9.7676888045
  H        29.1287964255       21.7648166422        6.6253717640
  H        32.1490765280       18.5370590185       10.9953687832
  H        27.4086386251       19.0810923531        8.0863825100
  H        14.8470780846       19.6496587128       12.1372216671
  H        17.0098334036       19.6978045120       13.3807206282
  H        18.2998745208       16.1857653918       11.2593314921
  H        16.1330901796       16.1537097860       10.0152520538
  H        16.9231358339       17.7028065003       14.8524670318
  H        46.0967718812       15.4533046453       12.0768695024
  H        43.9746283621       15.4095157458       13.3916391209
  H        42.5652229795       18.8379097021       11.2090396919
  H        44.6871595584       18.8563776385        9.8839503901
  H        44.0342253287       17.3545479217       14.8436101375
  H        20.2844164093       17.9238930821       11.4174577589
  H        46.0394743494       15.3895175745        4.0353104217
  H        43.9075273326       15.3367262480        2.7390297318
  H        42.5256876026       18.7994640058        4.8834700654
  H        44.6639679478       18.8389606517        6.1802736557
  H        44.0158779331       17.3293457351        1.2938625756
  H        46.1991683324       26.6825466149        4.6234019504
  H        52.7409701740       21.0625876358        8.1946872670
  H        14.8739357284       19.6835404265        3.8999730117
  H        17.0731572884       19.7744035008        2.7211915951
  H        18.3539957710       16.2643495028        4.8508237683
  H        16.1559148228       16.1969508030        6.0384777917
  H        16.9484397979       17.7327055200        1.2997327803
  H        52.3217617800       21.6730479575        6.2945400002
  H        52.0126384181       21.7015411609        9.4956579893
  H        49.0676597069       18.6076885610        5.2043210207
  H        13.2474466857       19.0166949414        7.9774104820
  H        29.9482208845       12.4516021354       12.2255739135
  H        28.8763754436       10.5279613957       13.4062146817
  H        25.2405530583       11.2131758831       11.2139693735
  H        26.3292586870       13.1300755276       10.0318580460
  H        27.1592246738       11.6837019224       14.7943669432
  H        30.9987056835       22.7721536295       12.0239496181
  H        32.0082081006       24.6492351794       13.3253186196
  H        35.6902294333       24.1552632693       11.1573492342
  H        34.6615903647       22.2843922768        9.8526134560
  H        33.6850009041       23.5775076811       14.7589902017
  H        25.7022617787        8.5994399038       11.4101546565
  H        30.9354448567       22.7281046476        3.9593910899
  H        31.9636763985       24.5803405055        2.6417984317
  H        35.6155578850       24.1214652488        4.8683662611
  H        34.5711369493       22.2699260509        6.1849533970
  H        33.6596898830       23.5600326906        1.2077068617
  H        40.5992891586       17.1002266484        4.6611661059
  H        32.5064227781       14.1414210427        8.2636496467
  H        29.8632689588       12.5412041265        3.9317627930
  H        28.8301203129       10.6502951831        2.6800992364
  H        25.1644342736       11.2243254963        4.8552208597
  H        26.2175855165       13.1095439490        6.1131917014
  H        27.1418377463       11.7083941337        1.2417753811
  H        33.3098807193       14.2336961946        6.4582075307
  H        33.4067589591       14.4191936464        9.5958238412
  H        32.1714492129       18.5783096811        5.1218582974
  H        30.2269346130       14.1980489969        8.0648217139
  H        16.1184537154        2.9635268026       12.1298446490
  H        14.9534090956        4.8207212613       13.3225610040
  H        17.3665757731        7.6860630408       11.2101410773
  H        18.5152168680        5.8183856777       10.0104110261
  H        16.7541452481        5.7399633241       14.7715239440
  H        44.8282812091       32.1402660222       11.9770523216
  H        45.9375437745       30.3413708369       13.3064379970
  H        43.6824495162       27.3781886373       11.1525323196
  H        42.5997823868       29.1900295162        9.8099264263
  H        44.2306501374       29.4368816955       14.7689467124
  H        14.8513247248        8.5463757533       11.3633591326
  H        44.8998768805       32.2340570624        3.9318726394
  H        46.0247988966       30.4130536391        2.6523705821
  H        43.7635809829       27.4840437802        4.8453848329
  H        42.6457755284       29.3176554161        6.1244852642
  H        44.2687862996       29.4706577092        1.2182057994
  H        35.0776957237       26.6186810306        4.6377806281
  H        36.6051491376       35.1341249766        8.1805983889
  H        16.1439661560        3.0130117098        3.9037950888
  H        14.9744736831        4.8564154409        2.6880183767
  H        17.3958302475        7.7473088394        4.7555469895
  H        18.5428258515        5.8933402322        5.9832259359
  H        16.7651636166        5.7558243343        1.2192888749
  H        36.2788071391       34.4824901410        6.2732079852
  H        36.3810011692       34.2091535884        9.4996218233
  H        40.5805873640       33.2029365694        5.1539515467
  H        17.4708359847        1.9474580573        7.9742829485
  H        29.0100594343       19.1510469145       12.5181813358
  H        28.8091353845       19.5079197716        3.6787378939
  H        31.4140959798       14.9492410865        3.8384750117
  H        31.5346912131       15.5653581825       12.5495847330
  H        28.1497127989       17.7258486374       14.6495744790
  H        29.8022450482       15.0696753110       14.1179791560
  H        32.0484265526       18.8378133881        1.4870852888
  H        28.1894084026       17.0053321700        1.6398119604
  H        31.3736837864       19.5882443564       13.9229462021
  H        18.8537948406        0.8692031509       12.3353174493
  H        40.5279129213       35.2290398321        3.9520144706
  H        42.3246079785       34.4193213453        3.5904574162
  H        22.0879677000        0.6920784012       12.3516204641
  H        11.5968890988       18.7131346902       12.3825694840
  H        52.2647285799       18.4308043566        3.6770545758
  H        49.2551674346       16.4770275585        3.5846930876
  H        10.1499111975       15.7980656035       12.2930193019
  H        50.8497765192       17.6922803329        3.9543417033
  H        10.0460025629       17.3943091277       12.0520688767
  H        20.2150885199        0.0024109885       12.0419915000
  H        39.1837241874       36.1244734529        3.6863903549
 Ni        30.2258160297       16.6137544693        2.8315910950
 Ni        29.8889998924       16.3252004776        0.0873950078
 Ni        30.1342404919       18.6328407933       -0.1667378679
 Ni        30.3962113486       17.4959197241       13.3225802315
  O        10.6500331545       14.3650759817        5.4858254122
  O        12.6132896553       14.6575983230        6.5838626894
  O        49.1481939408       16.8458933730        7.9897523753
  O        50.3503188674       20.9358437448        5.6480692442
  O        48.3485989855       20.5933733895        6.6659023685
  O        11.0518239256       17.0537701915        6.5006342483
  O        50.3211025873       20.8817059713       10.4068151179
  O        48.3467889532       20.5868714684        9.3271590586
  O        49.5441883685       18.2484956918       10.0682929445
  O        12.3591842324       18.6245120057        7.9995266292
  O        48.6932921588       14.1485239843        6.7513142434
  O         8.2099053769       14.2103013945        9.3225103338
  O        10.7354319226       14.5067314731       10.6643077315
  O        12.5718220350       14.5829110817        9.3284260991
  O        22.8448665568        2.0446740273        5.4869395079
  O        21.6050809189        3.5923280047        6.5905043092
  O        42.0583013066       34.1375457268        7.9790647043
  O        37.9818214977       33.1388439993        5.5728185940
  O        39.2183430643       31.5766905929        6.6669440598
  O        20.3085900122        1.0400006973        6.5021787775
  O        38.0249284379       33.1863192888       10.4150515908
  O        39.2189828033       31.5837213413        9.3266996621
  O        40.6523852228       33.7694928426       10.0603437129
  O        18.2555002667        1.3762655769        7.9969141310
  O        44.6221922552       35.1005903226        6.7586980126
  O        24.2054136181        0.0000371098        9.3207869813
  O        22.7532772830        2.0583851418       10.5843361222
  O        21.6248800100        3.5966451759        9.3436473026
  O        27.5722719331       18.7439631360        5.4211885813
  O        26.7399624121       17.0089106463        6.6537859539
  O        30.6760937795       19.4079325437        8.0720502741
  O        33.6193775432       16.3316356670        5.7438123134
  O        34.3046887629       18.2502480574        6.7436052984
  O        29.5785005410       17.0757433213        6.5747585252
  O        33.6666755087       16.2688720824       10.3278618494
  O        34.3101086319       18.2443234752        9.4081580981
  O        31.7113859072       18.3114414004       10.1568032225
  O        30.3268565698       15.1640626841        8.0798232129
  O        28.5525898880       21.0343953255        6.9145167186
  O        28.5144004791       20.9561179292        9.4055098829
  O        27.4584865600       18.6788245452       10.6600990675
  O        26.6949790604       16.9303075399        9.4122003134
  O        13.1484516683       18.6930180465       10.5872770498
  O        13.9194087443       16.9161431633        9.4048521358
  O        50.5963636398       19.3503267331        8.0203637646
  O        47.6837520155       16.3267696196       10.4169221405
  O        46.9525988825       18.1761053495        9.3241009413
  O        11.0700391634       17.0152925135        9.4895839992
  O        47.6766248863       16.3352646365        5.6531313540
  O        46.9294098939       18.2355939611        6.6653875006
  O        49.5692208273       18.3177102283        5.9822955985
  O        10.3186789077       15.1001356342        7.9970471400
  O        52.6707198914       21.0278620045        9.2418352964
  O        12.1468514177       20.8911943244        6.6731935775
  O        13.1087287387       18.6139387536        5.3253381223
  O        13.9586986113       16.9878536189        6.6639656785
  O        29.9923335024       14.4421009102       10.7287616830
  O        28.0894211352       14.6563903392        9.4903996631
  O        32.1040924264       16.9103131959        8.0628150844
  O        30.9673307395       20.9550759180       10.4082101579
  O        32.9487923821       20.6082439656        9.3425966798
  O        29.5743287971       17.0783561849        9.5792286397
  O        30.8734253788       20.9497523162        5.6683857080
  O        32.8770770771       20.5826755697        6.6665781606
  O        31.6032528593       18.2441260173        5.8330225926
  O        28.2938022719       18.6814943420        8.0791318757
  O        32.4907530794       14.2113947293        9.3289449578
  O        32.4054991881       14.2200643303        6.8158215381
  O        29.9056200068       14.4360186640        5.5017003951
  O        28.0070727300       14.6512088020        6.7388707958
  O        17.8892292371        1.9666989207       10.6628054141
  O        18.9562537173        3.5272000805        9.4080086822
  O        39.1687310301       34.1389194544        7.9972638241
  O        43.2802437669       33.0590129972       10.3317206712
  O        42.0345625793       31.5064711009        9.2416782318
  O        20.3178440854        1.0368637612        9.4802694042
  O        43.2760327007       33.1825397814        5.5749084368
  O        42.0052466249       31.5840773102        6.5830360222
  O        40.5793421627       33.7754161801        5.9362194619
  O        22.3674293994        1.3847499975        7.9980087212
  O        36.6727557153       35.0998183408        9.2332730143
  O        16.4455833619        0.0644065480        6.6683447033
  O        17.9364340000        2.0434263599        5.3263334844
  O        18.9190238138        3.5931839998        6.6659906900
  O        29.7266488888       19.2648611793        3.9192885179
  O        29.8200212288       18.9766321805       11.9931196741
  O        31.5160927882       15.9075673702        4.0009314838
  O        31.4251801881       16.3588617968       11.9935847372
  O        29.1138046336       17.2831931365        1.5013732639
  O        30.4726576001       15.6840527625       14.4701243792
  O        31.4900545698       18.7536287561       14.4142263528
  O        31.2246246753       19.3508578328        1.4152812032
  O        28.8145349133       18.3917172994       14.4036653562
  O        39.4568149386       35.2438489492        4.0019735311
  O        19.1417092340        0.0047639611       11.9905419156
  O        41.9696420026       35.1727757248        4.0873042195
  O        21.6913897573       -0.0692437856       11.8959523565
  O        51.3650899467       18.6142147680        4.0054288133
  O        10.7511668356       18.7472205390       11.9049162153
  O        50.0797686212       16.4128534826        4.0917199721
  O         9.5243125293       16.4830189765       11.9912228899
 Zr         9.2964795297       16.0526690441        6.1825074767
 Zr        49.8360126076       16.0065577690        9.7463954530
 Zr        22.0733068271        0.0301228118        6.1890716875
 Zr        42.4610885784       35.1535882942        9.8010391943
 Zr        29.6296853145       19.1352644255        6.3580683550
 Zr        29.5885576653       19.1677798914        9.9168272445
 Zr        11.0377228383       19.0517936650        9.8275494556
 Zr        11.0437554347       19.1547152367        6.2510189039
 Zr        31.3629505108       16.1027594246        9.8867870941
 Zr        31.3991233395       16.0158645884        6.2742167181
 Zr        18.6011953879       -0.0012958365        9.7633885788
 Zr        18.5066415616       -0.0073129920        6.2139254972
 Zr        12.3018376909       16.3236336468        7.9898465915
 Zr        48.6164074849       18.8331188327        8.0103333244
 Zr        20.3153986080        2.4736337241        7.9909848074
 Zr        40.6437130169       32.6871647069        7.9784218149
 Zr        28.3467832072       16.3563842746        8.0878593289
 Zr        32.6615937107       18.8518826077        8.0803348502
  H        29.2417527415       16.7940281206        3.8919241956
  H        29.7153623637       18.2332478227        3.7358069396
  H        30.7863106744       19.3069104128        2.3010142771
