     567
 i =      117, E =     -4728.3084078253
  C        11.8587975546       14.0536337202        5.7415665929
  C        12.4562434665       12.8906106993        5.0233864731
  C        11.7044464580       12.1716055768        4.0818417564
  C        12.2807318804       11.1093594389        3.3894812293
  C        13.6213253898       10.7395339148        3.6171273551
  C        14.3545772117       11.4431480151        4.5905086267
  C        13.7817904653       12.5081977829        5.2820154515
  C        14.2608173762        9.6488695476        2.8436506104
  C        14.2560170946        9.6567295628        1.4219342298
  C        13.7428103432       10.7588353396        0.6680308350
  C        49.1267637833       21.2332263669        5.8796326042
  C        48.5499692948       22.4011862432        5.1526103752
  C        49.2999242842       23.0684174562        4.1714963269
  C        48.7329498866       24.1075158592        3.4382715233
  C        47.4024415038       24.5092079604        3.6669829053
  C        46.6715648544       23.8604106123        4.6806008496
  C        47.2340496904       22.8155436484        5.4099764759
  C        46.7721720839       25.5868919964        2.8697154862
  C        46.7610807120       25.5572567471        1.4479552128
  C        47.2609464171       24.4421356036        0.7044587724
  C        14.8599845737        8.5704160373        0.7086389058
  C        14.8916861592        8.5969396657        3.5202657666
  C        49.1130038933       21.2034008819       10.1452870824
  C        48.5275520973       22.3647205836       10.8724780059
  C        49.2667271975       23.0253539425       11.8654854151
  C        48.6903876724       24.0599241279       12.5969203453
  C        47.3600093436       24.4567645176       12.3586040724
  C        46.6396590643       23.8119279738       11.3349899323
  C        47.2132195790       22.7760184094       10.6032130618
  C        46.7215402919       25.5317314678       13.1496224091
  C        46.7332546085       25.5280747576       14.5713281612
  C        47.2486152526       24.4288177976       15.3276989971
  C        40.6166024278       17.1361466572       15.2973453797
  C        40.6303259996       17.1637169234       12.4876753383
  C        11.8829789108       14.0865710652       10.2852982596
  C        12.4722134940       12.9106775039       10.9894754589
  C        11.7147496671       12.1777846973       11.9158844589
  C        12.2812584873       11.0953419502       12.5843873564
  C        13.6199263060       10.7211996564       12.3523027999
  C        14.3577837572       11.4363924768       11.3911144045
  C        13.7924326819       12.5175367645       10.7183009007
  C        14.2534930708        9.6244779712       13.1228035888
  C        14.2521788655        9.6444126135       14.5446584666
  C        13.7422687346       10.7533189076       15.2917718356
  C        22.5072936774        3.2456114355        5.7449762774
  C        23.2091171926        4.3505192737        5.0291370489
  C        24.2056554443        4.0705494804        4.0820846808
  C        24.8261575247        5.1087446822        3.3910196085
  C        24.4665552280        6.4511528987        3.6251606408
  C        23.4937982789        6.7226267641        4.6050545855
  C        22.8694038068        5.6863521573        5.2951931160
  C        25.0760591356        7.5584314604        2.8510086152
  C        25.0652716108        7.5517762631        1.4290626112
  C        24.3739907510        6.5505506962        0.6760822861
  C        38.2961686963       31.9268536603        5.8525987465
  C        37.5495675363       30.8379316580        5.1543621712
  C        36.5826764242       31.1456985636        4.1843825370
  C        35.9472278244       30.1288071635        3.4762271308
  C        36.2619734878       28.7760828592        3.7135593880
  C        37.1974479811       28.4757397140        4.7220649360
  C        37.8370987128       29.4918243857        5.4297044160
  C        35.6487657232       27.6893584260        2.9123853193
  C        35.6961249054       27.7038242850        1.4901953062
  C        36.4142755489       28.7031378642        0.7601638832
  C        25.6928592972        8.6238629452        0.7149881253
  C        25.6641266740        8.6356677202        3.5272694611
  C        38.3313862246       31.9606598198       10.1615933175
  C        37.6170125919       30.8878831949       10.9139965262
  C        36.6840750800       31.1982197262       11.9156347355
  C        36.0748834258       30.1820530925       12.6501257021
  C        36.3832477758       28.8282447186       12.4076032612
  C        37.2983908904       28.5277902895       11.3797089106
  C        37.9093577132       29.5404916942       10.6462826484
  C        35.7655093352       27.7300627596       13.1880719074
  C        35.7553213799       27.7250415432       14.6108657133
  C        36.4405664253       28.7146150217       15.3834671537
  C        46.1352257898       26.6206971546       15.2814687861
  C        46.0876179407       26.5801164659       12.4735744125
  C        22.4659242683        3.2565228477       10.2519780533
  C        23.1710335702        4.3671467955       10.9608265882
  C        24.1843140172        4.0846784584       11.8906824962
  C        24.8201811254        5.1179304548       12.5748155420
  C        24.4620420158        6.4627600631       12.3527511021
  C        23.4736222378        6.7385037785       11.3893789455
  C        22.8340954193        5.7056802138       10.7044929027
  C        25.0895261449        7.5621568467       13.1283416591
  C        25.0715081910        7.5539072467       14.5508107974
  C        24.3749678382        6.5531609655       15.2995293498
  C        26.6566709328       17.9162707444        5.6977089287
  C        25.3538733508       18.0148226496        4.9776809164
  C        25.1083184284       19.0125562246        4.0216059993
  C        23.8798127020       19.0657994308        3.3631831520
  C        22.8651318408       18.1246818853        3.6357706831
  C        23.1091403323       17.1532057970        4.6246711973
  C        24.3345655437       17.0957754110        5.2819502345
  C        21.5856467777       18.1120654089        2.8833349217
  C        21.5804721188       18.0701941707        1.4614274483
  C        22.7841369062       17.9395597132        0.6989136063
  C        34.3771700953       17.2949504199        5.8086692921
  C        35.6866989768       17.2234582616        5.0983641739
  C        35.8976670454       16.2512395415        4.1077398348
  C        37.0946331815       16.2181966567        3.3988235321
  C        38.1120598441       17.1583405881        3.6556818952
  C        37.9058888637       18.1058637953        4.6765531725
  C        36.7077484105       18.1418972183        5.3869874156
  C        39.3704333899       17.1585658682        2.8749183954
  C        39.3639650444       17.1702920861        1.4524542929
  C        38.1571771680       17.3026006503        0.6952240530
  C        20.3307343205       18.0644019408        0.7590631341
  C        20.3634967511       18.1014928698        3.5721881877
  C        34.4686317014       17.2485781365       10.1132391867
  C        35.7631351703       17.1816434097       10.8515210388
  C        35.9607916101       16.2131878097       11.8476943252
  C        37.1398190289       16.1975701910       12.5882747850
  C        38.1520856909       17.1486951163       12.3533389300
  C        37.9584153842       18.0944396968       11.3284039664
  C        36.7770682617       18.1162602612       10.5911421997
  C        39.3988039229       17.1611629039       13.1527338260
  C        39.3784981606       17.1714619076       14.5745957032
  C        38.1636463665       17.3012381849       15.3184636606
  C        35.1120443243       26.6484674142       15.3079526876
  C        35.1810865328       26.6596950597       12.4981750142
  C        26.5592445660       17.8270636160       10.3157323954
  C        25.2415383179       17.8891326983       11.0114856178
  C        24.9759038282       18.9186886431       11.9272739579
  C        23.7586922987       18.9603132284       12.6005385458
  C        22.7785243903       17.9713448927       12.3844052762
  C        23.0376069541       16.9666917512       11.4340761427
  C        24.2549880694       16.9240562675       10.7566039834
  C        21.5180900694       17.9691020575       13.1633180697
  C        21.5460982901       17.9962715904       14.5846420046
  C        22.7676887262       17.9041485145       15.3235086496
  C        14.0441702795       17.8307841136       10.2877681954
  C        15.3461968245       17.8953262854       11.0137041377
  C        15.5988280615       18.9132974786       11.9463810646
  C        16.8063075920       18.9468031787       12.6400217804
  C        17.7936677472       17.9649574432       12.4226995087
  C        17.5449464448       16.9691219847       11.4594646998
  C        16.3370134064       16.9317314707       10.7663871805
  C        19.0630612111       17.9671489900       13.1887280382
  C        19.0652490411       17.9951308087       14.6108062167
  C        17.8613776415       17.9017378160       15.3777461565
  C        46.8030856234       17.2171083884       10.1557140631
  C        45.5084428793       17.1529554335       10.8934708805
  C        45.2924939464       16.1687107107       11.8702312957
  C        44.1069823923       16.1515330052       12.6004743193
  C        43.1080793275       17.1191096966       12.3764780327
  C        43.3201749961       18.0813619393       11.3708115184
  C        44.5059700097       18.1020446195       10.6411855320
  C        41.8548959642       17.1374588648       13.1652412346
  C        41.8625054416       17.1364513962       14.5872220982
  C        43.0732980145       17.2195771627       15.3444384849
  C        20.3137291220       18.0295572185       15.3142749410
  C        20.2841406260       17.9362582699       12.5020760057
  C        46.7832306880       17.2337784622        5.8841858571
  C        45.4809061774       17.1342224876        5.1619061297
  C        45.2584090842       16.1368796790        4.1998361303
  C        44.0709183979       16.1141403218        3.4711848145
  C        43.0739574335       17.0863868906        3.6849675240
  C        43.2877481093       18.0548616219        4.6841182130
  C        44.4758091379       18.0833493303        5.4086362436
  C        41.8258642400       17.1125477422        2.8875271857
  C        41.8478319441       17.1222743435        1.4655760360
  C        43.0664403360       17.2105706845        0.7214614584
  C        46.1530630053       26.6371488148        0.7262269732
  C        46.1622824216       26.6560349580        3.5358637712
  C        14.0502351050       17.8410091083        5.7116351485
  C        15.3745276972       17.9435924330        5.0268855447
  C        15.6281406118       18.9725787394        4.1066007577
  C        16.8555126052       19.0423488419        3.4507863742
  C        17.8607035268       18.0830344877        3.6876648204
  C        17.6142682020       17.0835350144        4.6473583859
  C        16.3881816742       17.0132701541        5.3073849625
  C        19.1269378397       18.0891801271        2.9121743412
  C        19.0982298365       18.0565090265        1.4899028984
  C        17.8774988287       17.9279185831        0.7538995033
  C        28.8064958215       14.0805704237       10.2865262195
  C        28.2006809789       12.9190415913       10.9972066632
  C        28.9146210379       12.2246198846       11.9854915505
  C        28.3208655595       11.1586660593       12.6576100815
  C        26.9983106840       10.7630786336       12.3694182259
  C        26.3059970688       11.4426771021       11.3498082666
  C        26.8968235834       12.5082279154       10.6754204250
  C        26.3338284704        9.6819276697       13.1351933270
  C        26.3116135565        9.7048049300       14.5570766718
  C        26.8066388526       10.8167236400       15.3098122492
  C        32.1757405412       21.2401355592       10.1486974438
  C        32.7734478984       22.4057279925       10.8666633512
  C        32.0240290803       23.0857958175       11.8391789423
  C        32.5925546697       24.1275225597       12.5658068583
  C        33.9280338194       24.5169885113       12.3446127676
  C        34.6605962191       23.8549281053       11.3409824236
  C        34.0935869766       22.8087859126       10.6145191927
  C        34.5542049227       25.5915992791       13.1500802809
  C        34.5284043254       25.5651174408       14.5722379963
  C        34.0096422063       24.4512394637       15.3048808789
  C        25.7002600016        8.6225692771       15.2700079391
  C        25.7057617638        8.6270164474       12.4579644427
  C        31.9929163582       21.2036810333        5.8292630767
  C        32.5687995456       22.3651963541        5.0958176210
  C        31.8580226415       23.0062821983        4.0685949369
  C        32.4435420601       24.0509561343        3.3553763051
  C        33.7539659764       24.4837116101        3.6448664370
  C        34.4430331993       23.8562427076        4.7014858623
  C        33.8636333218       22.8101040068        5.4127727648
  C        34.4114232979       25.5650339295        2.8728324171
  C        34.4541285171       25.5518954387        1.4503276462
  C        33.9728619081       24.4457991451        0.6812126069
  C        40.6092273678       17.1321701186        0.7427167781
  C        40.5948312951       17.1477602326        3.5534856462
  C        28.7186856137       14.0959192078        5.7465195645
  C        28.1049988367       12.9408151587        5.0272610915
  C        28.8508244330       12.2055467571        4.0925868962
  C        28.2669991480       11.1451641186        3.4045792527
  C        26.9220480886       10.7894099923        3.6287769172
  C        26.1932647057       11.5078160367        4.5946610325
  C        26.7748175455       12.5715972434        5.2826703562
  C        26.2825107974        9.6975539396        2.8553057494
  C        26.2883603184        9.7112820701        1.4337474313
  C        26.7956896873       10.8199651937        0.6857883480
  C        18.1354705592        3.1809596574       10.3171234268
  C        17.4060663613        4.2781667915       11.0157010849
  C        16.3902380998        3.9997683481       11.9431004059
  C        15.7424412178        5.0397143801       12.6065920237
  C        16.0943449442        6.3834630964       12.3670277427
  C        17.0838186259        6.6530245272       11.4033651048
  C        17.7329848585        5.6157216949       10.7383100668
  C        15.4699538843        7.4911334455       13.1300965822
  C        15.4852124315        7.4904279518       14.5518156586
  C        16.1867897899        6.4968231085       15.3049730167
  C        42.9457723773       31.8596175316       10.0728247719
  C        43.6461295151       30.7719010356       10.8167589783
  C        44.5915444854       31.0931977531       11.8029468066
  C        45.1972021280       30.0876273799       12.5506230413
  C        44.8708432732       28.7345612022       12.3356704302
  C        43.9451724291       28.4202509564       11.3223001707
  C        43.3364184828       29.4254121338       10.5742338305
  C        45.4883850145       27.6552292293       13.1388536478
  C        45.4925504349       27.6808472011       14.5605509167
  C        44.8055126751       28.6889103884       15.3072009812
  C        14.8561690831        8.5628745685       15.2641939445
  C        14.8746946883        8.5629209647       12.4515179366
  C        42.9463615456       31.9615753615        5.8089522079
  C        43.6915455668       30.8854239465        5.0954640600
  C        44.6562149184       31.1913266290        4.1232330041
  C        45.2777370420       30.1717439045        3.4055010294
  C        44.9539434681       28.8214275221        3.6431187133
  C        44.0204391195       28.5237636170        4.6538788675
  C        43.3921710605       29.5405268528        5.3660604329
  C        45.5629236517       27.7240140862        2.8578391309
  C        45.5331372484       27.7173146384        1.4365428534
  C        44.8268287598       28.7075569911        0.6835953742
  C        35.0781122224       26.6399953623        0.7536222772
  C        35.0226685120       26.6201882827        3.5643016024
  C        18.1485449820        3.2468429910        5.7065434717
  C        17.4299817178        4.3436637787        4.9972328552
  C        16.4146943368        4.0524036810        4.0737365137
  C        15.7663937118        5.0830582949        3.3983716456
  C        16.1210821885        6.4283011201        3.6210516043
  C        17.1125559611        6.7116503179        4.5782294704
  C        17.7602317131        5.6827345235        5.2579923792
  C        15.4905066823        7.5240073484        2.8486543225
  C        15.4962755515        7.5073405706        1.4275121425
  C        16.1930585624        6.5056694322        0.6807888366
  H        10.6722973052       12.4657047584        3.9048974252
  H        11.6943476771       10.5508496369        2.6630388372
  H        15.3916418615       11.1686046576        4.7721417723
  H        14.3514191474       13.0715322615        6.0172411312
  H        13.3757920856       11.6309510853        1.2013541997
  H        50.3226016630       22.7483334739        3.9866641325
  H        49.3193852811       24.6227277579        2.6806185885
  H        45.6421035760       24.1612398450        4.8638441259
  H        46.6631010547       22.2903468942        6.1721467738
  H        47.6294775127       23.5757459530        1.2461288918
  H        14.8721643027        8.5882210089        4.6085775966
  H        50.2867502888       22.7024675541       12.0604573659
  H        49.2687532385       24.5753506211       13.3604647524
  H        45.6102917357       24.1092391334       11.1458376746
  H        46.6524630202       22.2539396626        9.8315470699
  H        47.6073723298       23.5516909321       14.7967993994
  H        40.6356432649       17.1314130650       11.3998308718
  H        48.6869516063       14.0952278947        7.8000546214
  H        10.6813899150       12.4671174342       12.0934958147
  H        11.6894636934       10.5251965829       13.2972801323
  H        15.3930948931       11.1582175385       11.2049304705
  H        14.3647286611       13.0865376922        9.9894417209
  H        13.3754742469       11.6219731425       14.7531805922
  H        47.9302059386       14.2187838381        9.7109122966
  H        47.7798201597       14.3735213272        6.4951556403
  H        49.0830506809       18.5519432078       10.8669790819
  H        10.4160154299       14.1343726542        7.9985970960
  H        24.4741612745        3.0324363732        3.8991273216
  H        25.6010993451        4.8890447052        2.6597914003
  H        23.2059479045        7.7550329289        4.7925135006
  H        22.0988087586        5.8889494234        6.0350521403
  H        23.8108406372        5.7910415205        1.2106152595
  H        36.3538633957       32.1901789050        3.9861335392
  H        35.1995218688       30.3744443255        2.7252117404
  H        37.4498278115       27.4351200330        4.9154502629
  H        38.5847765133       29.2642472864        6.1859877812
  H        36.9748267158       29.4518392468        1.3122472779
  H        25.6869254203        8.6202702158        4.6154717324
  H        36.4550080091       32.2426387955       12.1151132859
  H        35.3442966985       30.4303785122       13.4168544301
  H        37.5512012814       27.4874806217       11.1857066367
  H        38.6359438627       29.3114702736        9.8704541788
  H        37.0221217896       29.4719448518       14.8654425236
  H        46.1090887621       26.5875606467       11.3855393123
  H        44.6682719508       35.1162565292        7.8141050136
  H        24.4630922008        3.0470182511       12.0597879067
  H        25.6079306631        4.8922346089       13.2904404189
  H        23.1858627639        7.7722257682       11.2087763910
  H        22.0546024914        5.9156256556        9.9757535182
  H        23.8121071440        5.7958279005       14.7617533900
  H        44.9536468057       34.3903170561        9.6951651097
  H        44.9021198647       34.2070586902        6.4905767005
  H        40.6665597173       33.2093027719       10.8532321657
  H        23.1501530798        1.9584013418        8.0023288660
  H        25.8891247015       19.7385525367        3.8056127365
  H        23.6942105565       19.8441196222        2.6260710566
  H        22.3386832462       16.4169888172        4.8442666991
  H        24.5320654712       16.3314263842        6.0292436100
  H        23.7280491094       17.8333976624        1.2252834276
  H        35.1056990994       15.5354348368        3.9005509655
  H        37.2557919022       15.4577443821        2.6378829926
  H        38.6836356110       18.8385414829        4.8820560965
  H        36.5339106895       18.8886959012        6.1582866392
  H        37.2196548315       17.4371979669        1.2267476070
  H        20.3750830893       18.1481756472        4.6597981358
  H        35.1710674482       15.4901758438       12.0385760826
  H        37.2904362535       15.4415920137       13.3558334356
  H        38.7316039077       18.8369092932       11.1418775767
  H        36.6091212994       18.8650030634        9.8206230144
  H        37.2315442773       17.4340610507       14.7763742426
  H        35.1673309791       26.6854265049       11.4101992651
  H        28.4834856623       21.1291840514        8.0062617602
  H        25.7372915886       19.6766657318       12.0958967125
  H        23.5533926108       19.7623517252       13.3062486357
  H        22.2891868887       16.1959573803       11.2614899133
  H        24.4712805924       16.1353336952       10.0398822699
  H        23.6983471774       17.7713712960       14.7798049342
  H        29.0245594684       21.7046015667        9.7711723083
  H        29.0687160666       21.8290434192        6.6160602049
  H        32.0661008445       18.5333038882       11.0004572900
  H        27.3366924325       19.0904845514        8.0815484193
  H        14.8386206159       19.6735532449       12.1108773768
  H        17.0008955444       19.7428264284       13.3555301304
  H        18.2977454661       16.2031325696       11.2849004223
  H        16.1323570796       16.1514180613       10.0371826058
  H        16.9178180574       17.7729334299       14.8553831713
  H        46.0710093060       15.4313457245       12.0514642533
  H        43.9405708675       15.3813636294       13.3504580922
  H        42.5568655944       18.8360596005       11.1930078666
  H        44.6865234494       18.8597797271        9.8823570754
  H        44.0153359570       17.3231862099       14.8136100318
  H        20.2732480735       17.9396857050       11.4136113822
  H        46.0314806251       15.3920350289        4.0247530851
  H        43.9034288086       15.3380364077        2.7274930596
  H        42.5252882537       18.8114709158        4.8574347210
  H        44.6588533710       18.8502279943        6.1573422791
  H        44.0032730782       17.3064185751        1.2626908922
  H        46.1992273157       26.6826288894        4.6233040920
  H        52.7410285989       21.0627309180        8.1946035389
  H        14.8521107584       19.7118655877        3.9211048794
  H        17.0472980652       19.8435549723        2.7402027861
  H        18.3804967062       16.3354048895        4.8402513785
  H        16.1861003562       16.2274339549        6.0314361064
  H        16.9462859047       17.8187231544        1.3016218773
  H        52.3220655888       21.6733445492        6.2946622020
  H        52.0133296415       21.7022208845        9.4956304280
  H        49.0677016243       18.6073100404        5.2035066003
  H        13.2473914657       19.0173671949        7.9778669495
  H        29.9299421685       12.5377070927       12.2186245593
  H        28.8801050164       10.6183583993       13.4182830356
  H        25.2835854726       11.1507270591       11.1189248776
  H        26.3566999459       13.0519877278        9.9042410202
  H        27.1698629964       11.6891910231       14.7748877944
  H        31.0000024881       22.7704133427       12.0234899667
  H        32.0045608303       24.6523161534       13.3155576337
  H        35.6945564633       24.1439705393       11.1638322262
  H        34.6669791053       22.2731359951        9.8614505126
  H        33.6638283509       23.5798211396       14.7560762013
  H        25.7426215014        8.6082331495       11.3701438563
  H        30.8530447831       22.6654544386        3.8299318866
  H        31.8836679075       24.5469239295        2.5655774844
  H        35.4565985243       24.1759632689        4.9344035735
  H        34.4052290847       22.3073175018        6.2103676892
  H        33.5987868808       23.5691362558        1.2020460962
  H        40.5884654575       17.1128013246        4.6413154667
  H        32.5330351975       14.1856199179        8.1735746791
  H        29.8908549964       12.4746768289        3.9237450085
  H        28.8512872005       10.5749488467        2.6855561300
  H        25.1529709526       11.2448618977        4.7752262304
  H        26.2076984320       13.1432002648        6.0135472511
  H        27.1508078458       11.6942064448        1.2236582662
  H        33.3348821730       14.3132041377        6.3539526542
  H        33.4057297922       14.3882149828        9.5412396629
  H        32.0562148428       18.6342643413        5.0721197384
  H        30.2490158330       14.1993331052        7.9923233475
  H        16.1181292566        2.9632635069       12.1294308199
  H        14.9529087757        4.8202878232       13.3221469077
  H        17.3663185272        7.6858956800       11.2103321080
  H        18.5150981994        5.8184544838       10.0105663645
  H        16.7533942914        5.7395340227       14.7714529618
  H        44.8277838486       32.1402772258       11.9772101631
  H        45.9369950793       30.3413871483       13.3066376925
  H        43.6825859854       27.3781725539       11.1520702075
  H        42.5999950116       29.1900825682        9.8093801914
  H        44.2302011532       29.4367226236       14.7689130147
  H        14.8510043171        8.5461953086       11.3632963703
  H        44.8998058555       32.2340042066        3.9318210080
  H        46.0246901157       30.4129836599        2.6523142297
  H        43.7635108789       27.4840303795        4.8454619618
  H        42.6456638860       29.3177285327        6.1244996837
  H        44.2683961902       29.4704912716        1.2181897138
  H        34.9655866752       26.6347152635        4.6511809412
  H        36.6052836805       35.1339769445        8.1806755844
  H        16.1435416700        3.0128434610        3.9040316449
  H        14.9739992892        4.8562330323        2.6883566547
  H        17.3961225379        7.7471070803        4.7550968364
  H        18.5431395070        5.8932086770        5.9827160346
  H        16.7645847192        5.7554756980        1.2191958277
  H        36.2789202398       34.4822420375        6.2730466108
  H        36.3810987563       34.2089527873        9.4995019080
  H        40.5789014674       33.2018139425        5.1542586669
  H        17.4712327832        1.9472449737        7.9739695442
  H        29.1162892122       19.4787389717       12.5982560734
  H        30.7492638389       15.4574231295        3.6662255105
  H        30.9700713331       15.4854987619       12.3574458981
  H        28.2488204610       17.7833018866       14.9265846771
  H        29.6199554248       15.0526402286       14.8507034875
  H        32.0411663697       19.0823627752        1.5221244175
  H        32.6920672064       18.8176145448       15.5766678358
  H        18.8532154343        0.8690210628       12.3350870798
  H        40.5282270620       35.2287765039        3.9520692071
  H        42.3239642674       34.4187292745        3.5905046005
  H        22.0877783069        0.6918122318       12.3518236692
  H        11.5966090895       18.7129997537       12.3823369905
  H        52.2647531261       18.4304792665        3.6773038798
  H        49.2546942175       16.4762398397        3.5844699380
  H        10.1503324445       15.7983751910       12.2930015014
  H        50.8496856958       17.6925261488        3.9540720921
  H        10.0461875673       17.3948413442       12.0519678987
  H        20.2144517902        0.0022522919       12.0420131487
  H        39.1837471665       36.1243165525        3.6863208414
 Ni        30.5219677915       17.5786984943        2.6628901619
 Ni        31.3323620672       16.7763547808       -1.0009075078
 Ni        30.1840013372       18.4577584851        0.1725713284
 Ni        29.9747599446       17.3507239526       13.2359466125
  O        10.6500055372       14.3651996716        5.4859206572
  O        12.6132888821       14.6577378476        6.5838971639
  O        49.1477509574       16.8458376688        7.9896411832
  O        50.3501299985       20.9358342711        5.6479079546
  O        48.3484902094       20.5932979144        6.6658812273
  O        11.0515357042       17.0536071147        6.5007405179
  O        50.3207772044       20.8816530090       10.4068401339
  O        48.3466817491       20.5866824436        9.3269890069
  O        49.5436443133       18.2483259645       10.0680672084
  O        12.3594277195       18.6244128467        7.9993186459
  O        48.6931304467       14.1488026348        6.7512499039
  O         8.2098778806       14.2104929197        9.3225080312
  O        10.7353450113       14.5067403683       10.6642782261
  O        12.5718218067       14.5829756545        9.3283641767
  O        22.8448076364        2.0440051802        5.4861635192
  O        21.6066064343        3.5932752030        6.5880540416
  O        42.0580093066       34.1373135517        7.9789701357
  O        37.9813459298       33.1358707721        5.5720037915
  O        39.2168680362       31.5746797424        6.6651651220
  O        20.3085827471        1.0398281486        6.5018970370
  O        38.0243449427       33.1847815141       10.4158115418
  O        39.2183040586       31.5828621948        9.3275494246
  O        40.6521672208       33.7692323897       10.0600885197
  O        18.2559377317        1.3760875435        7.9966913701
  O        44.6221480335       35.1006232725        6.7588341267
  O        24.2053684886        0.0000361984        9.3207882611
  O        22.7534255122        2.0587770528       10.5836688296
  O        21.6242811964        3.5957148749        9.3413675719
  O        27.5936786591       18.7581411955        5.4099258222
  O        26.7383872483       17.0023382130        6.5839383346
  O        30.6093035055       19.4107595496        8.0768036299
  O        33.4986714504       16.4169565761        5.5025016786
  O        34.2225312801       18.2458729479        6.6542970396
  O        29.5583282969       17.0908574711        6.5725301355
  O        33.6086879534       16.3308670066       10.3320776866
  O        34.3048063031       18.2455918032        9.3260959011
  O        31.6451007167       18.3115522080       10.1513894624
  O        30.3251633262       15.1675355648        7.9998148530
  O        28.5070555933       21.0950250004        6.9191728045
  O        28.5148338703       20.9563165256        9.4145209772
  O        27.4495959676       18.6741434998       10.6584760022
  O        26.6907128974       16.9263614871        9.4095114866
  O        13.1455840667       18.6940500293       10.5862659681
  O        13.9191624244       16.9166162099        9.4053052125
  O        50.5961941142       19.3500535255        8.0197341046
  O        47.6822301368       16.3272702195       10.4173957595
  O        46.9518198066       18.1761043227        9.3241427842
  O        11.0699621282       17.0152269514        9.4891955752
  O        47.6730565372       16.3361646973        5.6516743315
  O        46.9256122336       18.2359424218        6.6629918349
  O        49.5686176815       18.3175905970        5.9819962306
  O        10.3186552248       15.1002291818        7.9970402632
  O        52.6707139936       21.0279075009        9.2417850832
  O        12.1467859152       20.8912712811        6.6732679575
  O        13.1069332527       18.6147162668        5.3257975390
  O        13.9607207701       16.9890590422        6.6620497574
  O        29.9985057741       14.4281734776       10.5788513120
  O        28.0762904948       14.6528369787        9.4044775270
  O        32.0986823534       16.9221363791        7.9949204389
  O        30.9632747562       20.9512753841       10.4099884878
  O        32.9424986862       20.6019426899        9.3360185381
  O        29.5618650812       17.0846285438        9.5017042235
  O        30.7660579596       20.8743932476        5.5769260620
  O        32.7648864497       20.6040704902        6.6495272821
  O        31.5502563901       18.3148891476        5.8365501641
  O        28.2195956686       18.6859788864        8.0787128606
  O        32.4929405683       14.2164577920        9.2448080853
  O        32.4404587757       14.2944611907        6.7327684039
  O        29.9070551646       14.4394709264        5.4173699176
  O        28.0081814968       14.6517486679        6.6579128900
  O        17.8892384236        1.9665604367       10.6627732292
  O        18.9562520925        3.5271057937        9.4079220739
  O        39.1685359675       34.1385975685        7.9970605152
  O        43.2801854720       33.0590050085       10.3316622437
  O        42.0343479760       31.5065088568        9.2415850206
  O        20.3175669762        1.0366366218        9.4798349612
  O        43.2760132623       33.1824913444        5.5748915352
  O        42.0051884278       31.5841409715        6.5830381019
  O        40.5789906138       33.7749681341        5.9360425347
  O        22.3673644647        1.3846784479        7.9978279064
  O        36.6728195338       35.0996890847        9.2333087988
  O        16.4457672456        0.0641278625        6.6682082423
  O        17.9363931462        2.0431704390        5.3264042320
  O        18.9190881182        3.5930845446        6.6658211542
  O        29.7423121948       18.9660205140       12.0563090744
  O        31.0050119318       16.3394806748        3.9961652941
  O        31.1665323972       16.3464688552       11.9288242724
  O        30.3010305383       15.3973958606       14.2518928339
  O        31.8916363865       18.5980773139       15.0708139640
  O        31.0948355368       19.1142062689        1.7455843773
  O        29.0234170597       18.3084596096       14.6622519331
  O        39.4568390302       35.2437234703        4.0020084694
  O        19.1411895055        0.0044970580       11.9905196252
  O        41.9693780118       35.1724620501        4.0871985310
  O        21.6912552933       -0.0693157404       11.8957523067
  O        51.3649781846       18.6141865516        4.0052442325
  O        10.7507472615       18.7472054719       11.9049178576
  O        50.0791251440       16.4127591645        4.0918380241
  O         9.5245617884       16.4831655435       11.9911479112
 Zr         9.2965941708       16.0528102593        6.1824401448
 Zr        49.8368620684       16.0067084302        9.7465139165
 Zr        22.0735521436        0.0301432641        6.1890002096
 Zr        42.4609213794       35.1539553452        9.8010069274
 Zr        29.5659291569       19.1450437441        6.3965373710
 Zr        29.5416896282       19.1531960104        9.9406060734
 Zr        11.0374808186       19.0518923325        9.8274367951
 Zr        11.0442842120       19.1546086372        6.2505131355
 Zr        31.3386842294       16.1001632539        9.8274493483
 Zr        31.3533699605       16.0607802901        6.1990142306
 Zr        18.6012041811       -0.0013853994        9.7633542355
 Zr        18.5068120878       -0.0077383682        6.2135340382
 Zr        12.3030455841       16.3237608067        7.9893072574
 Zr        48.6163914717       18.8329612821        8.0096933154
 Zr        20.3156747471        2.4740156251        7.9902554239
 Zr        40.6431710739       32.6869718209        7.9779165896
 Zr        28.3149447234       16.3488023674        8.0409776960
 Zr        32.6137095393       18.8593837554        8.0417624441
  H        29.3099883443       17.7159787434        1.2290926040
