     567
 i =      134, E =     -4728.2785846422
  C        11.8586744108       14.0536378715        5.7416361298
  C        12.4561188644       12.8905556808        5.0234884968
  C        11.7044093259       12.1717454341        4.0817349651
  C        12.2806907219       11.1095166266        3.3893341912
  C        13.6212315901       10.7395869836        3.6170959771
  C        14.3544159827       11.4430247894        4.5906540726
  C        13.7816205236       12.5080525041        5.2821901121
  C        14.2607342092        9.6489165122        2.8436377521
  C        14.2560084398        9.6567907287        1.4219189542
  C        13.7428549958       10.7589063310        0.6679914579
  C        49.1266777389       21.2331408442        5.8796267997
  C        48.5498378736       22.4010332959        5.1525499607
  C        49.2998855983       23.0684826270        4.1716526990
  C        48.7329156936       24.1075859590        3.4384357250
  C        47.4023136074       24.5090687530        3.6669674575
  C        46.6713039725       23.8600313429        4.6803322302
  C        47.2337984767       22.8151509993        5.4096919610
  C        46.7720747791       25.5867927220        2.8697103325
  C        46.7610424343       25.5572080501        1.4479458467
  C        47.2609517001       24.4421137010        0.7044396998
  C        14.8599522745        8.5704611529        0.7086240577
  C        14.8915664462        8.5969577035        3.5202413276
  C        49.1128791685       21.2033308233       10.1452464126
  C        48.5273945238       22.3646419592       10.8724228956
  C        49.2666552607       23.0254761798       11.8652371208
  C        48.6903062653       24.0600267221       12.5966888696
  C        47.3598259232       24.4566516108       12.3585773842
  C        46.6393576774       23.8115771042       11.3352009340
  C        47.2129244059       22.7756636144       10.6034180890
  C        46.7213706732       25.5316339327       13.1496062213
  C        46.7331892764       25.5280294424       14.5713127715
  C        47.2486127237       24.4287986824       15.3276787202
  C        40.6046372603       17.1048045215       15.2794999060
  C        40.6084809505       17.1028411378       12.4696729157
  C        11.8828922416       14.0866329987       10.2852728216
  C        12.4720947011       12.9106312178       10.9893849214
  C        11.7146768233       12.1778907470       11.9159447709
  C        12.2811214617       11.0953807691       12.5844038801
  C        13.6197537121       10.7211575195       12.3522755884
  C        14.3575495439       11.4361620993       11.3909000079
  C        13.7922639473       12.5173786230       10.7181439234
  C        14.2533114149        9.6244204474       13.1227659398
  C        14.2521008848        9.6444190434       14.5446260936
  C        13.7422870564       10.7533784243       15.2917301769
  C        22.5067324886        3.2453694274        5.7444954947
  C        23.2075499474        4.3500978069        5.0273765592
  C        24.2047622977        4.0698365336        4.0811407673
  C        24.8247815703        5.1077400581        3.3892126462
  C        24.4639725254        6.4500658948        3.6218227401
  C        23.4902124433        6.7219265072        4.6005829775
  C        22.8662824003        5.6859004064        5.2914959223
  C        25.0743552814        7.5569381136        2.8479186740
  C        25.0657736055        7.5496691328        1.4260685081
  C        24.3739732776        6.5490443172        0.6728414226
  C        38.2947459464       31.9279976290        5.8521740827
  C        37.5432473428       30.8435420330        5.1517362379
  C        36.5810184462       31.1602525887        4.1797654796
  C        35.9382629504       30.1499851375        3.4688174699
  C        36.2401406103       28.7943873383        3.7056918891
  C        37.1714552545       28.4851233189        4.7156123012
  C        37.8191034080       29.4947955817        5.4256322538
  C        35.6180345810       27.7130995125        2.9036686365
  C        35.6693477737       27.7241649342        1.4814738809
  C        36.3955132494       28.7171436534        0.7509032653
  C        25.6958343180        8.6205910317        0.7124419396
  C        25.6616140080        8.6343673048        3.5243750377
  C        38.3307506473       31.9613540072       10.1600713476
  C        37.6134868724       30.8895137117       10.9099542532
  C        36.6799176510       31.2016810614       11.9103134318
  C        36.0673806670       30.1864771000       12.6428159584
  C        36.3733972910       28.8323733820       12.3993245953
  C        37.2889050285       28.5300771516       11.3724353121
  C        37.9031388144       29.5419339057       10.6408073587
  C        35.7525596383       27.7366006985       13.1795766450
  C        35.7382716331       27.7359512564       14.6022303474
  C        36.4260111692       28.7244506434       15.3741845578
  C        46.1352090923       26.6206747482       15.2814623016
  C        46.0873983999       26.5799868390       12.4735608815
  C        22.4658968161        3.2561589544       10.2513029319
  C        23.1714278363        4.3667366800       10.9593208519
  C        24.1852916718        4.0841029625       11.8883983792
  C        24.8213776346        5.1173902849       12.5720695163
  C        24.4625830621        6.4620127557       12.3501201097
  C        23.4736696248        6.7379337764       11.3874156258
  C        22.8339322961        5.7050659833       10.7029526137
  C        25.0903899341        7.5609083134       13.1256220742
  C        25.0733666930        7.5518210114       14.5480370669
  C        24.3754712177        6.5516556533       15.2963126601
  C        26.6528233197       17.9172542022        5.6981564216
  C        25.3499813472       18.0173055517        4.9794347626
  C        25.1055807017       19.0175803744        4.0256313782
  C        23.8773946862       19.0730831657        3.3669287353
  C        22.8627376314       18.1308587044        3.6357715872
  C        23.1056936803       17.1567956113        4.6224116797
  C        24.3304128143       17.0977061476        5.2809144885
  C        21.5839833645       18.1197221075        2.8821995029
  C        21.5795905200       18.0812733613        1.4602011029
  C        22.7839541802       17.9551438273        0.6980338635
  C        34.3766413263       17.3004827750        5.8056570841
  C        35.6836852736       17.2346099503        5.0885113231
  C        35.8902374355       16.2660584193        4.0933078002
  C        37.0878261874       16.2295258570        3.3851649653
  C        38.1105964269       17.1636994547        3.6442495982
  C        37.9071809123       18.1094809376        4.6676145080
  C        36.7090141201       18.1479038227        5.3787164455
  C        39.3686895442       17.1602790892        2.8613650795
  C        39.3589735628       17.1612263249        1.4385254688
  C        38.1503006511       17.2900511284        0.6838201006
  C        20.3302061525       18.0745547509        0.7572146667
  C        20.3614631206       18.1062992394        3.5703403275
  C        34.4349819435       17.2435264968       10.1162777185
  C        35.7287576252       17.1497675500       10.8534146684
  C        35.9163752913       16.1886361232       11.8586952171
  C        37.1002273602       16.1607615764       12.5929512846
  C        38.1280554166       17.0920369375       12.3437065879
  C        37.9441301233       18.0280207270       11.3078034544
  C        36.7597602988       18.0618661177       10.5770071424
  C        39.3783726778       17.1039695644       13.1388114362
  C        39.3636076590       17.1308693259       14.5607619058
  C        38.1519532123       17.2732188289       15.3073424197
  C        35.0879776753       26.6645428316       15.3001696746
  C        35.1686274793       26.6654392007       12.4906921673
  C        26.5620414867       17.8286208088       10.3171671058
  C        25.2449610583       17.8927187555       11.0138728395
  C        24.9764623026       18.9283430014       11.9220881268
  C        23.7585935372       18.9722042541       12.5942172098
  C        22.7804871376       17.9798865573       12.3841618897
  C        23.0423920662       16.9690746416       11.4412363880
  C        24.2603254411       16.9241065748       10.7649558145
  C        21.5192911740       17.9797516826       13.1620951170
  C        21.5466545092       18.0090964362       14.5833018794
  C        22.7681715794       17.9205620479       15.3226382269
  C        14.0444036460       17.8314219758       10.2871556129
  C        15.3470127724       17.8976616846       11.0121263998
  C        15.5997991672       18.9178552904       11.9423258044
  C        16.8075604519       18.9532549643       12.6353784961
  C        17.7950568266       17.9711774154       12.4199012564
  C        17.5462110135       16.9730885168       11.4590518143
  C        16.3379705208       16.9338208290       10.7664889982
  C        19.0643651556       17.9753368667       13.1861763679
  C        19.0658569088       18.0042209618       14.6082536491
  C        17.8615913020       17.9101720911       15.3745512534
  C        46.7989633543       17.2125690384       10.1512422520
  C        45.4979597264       17.1353371575       10.8782742998
  C        45.2856984575       16.1492836010       11.8543551089
  C        44.0967962079       16.1204619674       12.5790539060
  C        43.0887701094       17.0777280597       12.3508760708
  C        43.2956745965       18.0392053654       11.3429805003
  C        44.4854125760       18.0719499333       10.6191156726
  C        41.8360243218       17.0901435188       13.1426562561
  C        41.8482306028       17.1018215193       14.5651085271
  C        43.0609947721       17.1965263892       15.3179030783
  C        20.3139218878       18.0404171909       15.3123909476
  C        20.2858008362       17.9447607588       12.5001282059
  C        46.7823422664       17.2357974330        5.8795508773
  C        45.4826350666       17.1400784126        5.1495627373
  C        45.2642019529       16.1484595517        4.1801535499
  C        44.0786045619       16.1267903459        3.4475714345
  C        43.0766775318       17.0940815472        3.6635170150
  C        43.2876666897       18.0581396697        4.6681996153
  C        44.4740178124       18.0858194089        5.3964277108
  C        41.8263420731       17.1162780207        2.8671386260
  C        41.8433754007       17.1145850945        1.4445086825
  C        43.0588097104       17.1997302625        0.6949274879
  C        46.1530834518       26.6371392179        0.7262231549
  C        46.1621842724       26.6559245286        3.5358694053
  C        14.0498661310       17.8409710582        5.7113074852
  C        15.3736780655       17.9439693028        5.0255397185
  C        15.6271939912       18.9754383977        4.1079891897
  C        16.8541004400       19.0463839915        3.4513987413
  C        17.8588484889       18.0858457388        3.6849229845
  C        17.6123601427       17.0834251885        4.6415386841
  C        16.3867404044       17.0119827787        5.3023504571
  C        19.1252829651       18.0943824268        2.9097364805
  C        19.0973288018       18.0643056531        1.4874321345
  C        17.8770259609       17.9359079060        0.7507507487
  C        28.8066738296       14.0800873003       10.2869029731
  C        28.2027566034       12.9174121879       10.9968649641
  C        28.9232074222       12.2084424858       11.9700602154
  C        28.3290276461       11.1432472356       12.6429286526
  C        27.0001346461       10.7607535070       12.3677245246
  C        26.3008432334       11.4533662946       11.3618570973
  C        26.8916012378       12.5194215843       10.6883975032
  C        26.3365785183        9.6787762608       13.1330910014
  C        26.3181359830        9.6998604586       14.5548670688
  C        26.8192134062       10.8090630918       15.3074375892
  C        32.1725881854       21.2358462575       10.1523163272
  C        32.7652082922       22.4041718867       10.8689997304
  C        32.0106687401       23.0919990815       11.8321665832
  C        32.5762202372       24.1376020439       12.5554448702
  C        33.9137312006       24.5233825655       12.3402969650
  C        34.6514096563       23.8539606774       11.3453804158
  C        34.0873838543       22.8042674776       10.6220133142
  C        34.5371900649       25.6009733307       13.1438003097
  C        34.5044756872       25.5801671188       14.5657335276
  C        33.9796360523       24.4700969204       15.2995381576
  C        25.7041341028        8.6190402579       15.2675540551
  C        25.7059073822        8.6261467493       12.4552399211
  C        31.9717399575       21.2293266887        5.8278105392
  C        32.5368870026       22.3924197691        5.0879306971
  C        31.8219222312       23.0282523252        4.0606854855
  C        32.4014890896       24.0763119972        3.3465840811
  C        33.7096036850       24.5160551971        3.6360181389
  C        34.4023145037       23.8934398786        4.6927268083
  C        33.8287707181       22.8453014527        5.4047620289
  C        34.3669926384       25.5968082276        2.8641084136
  C        34.4162158267       25.5787439099        1.4423918775
  C        33.9360037218       24.4707581005        0.6754429672
  C        40.6021749513       17.1157670165        0.7253489385
  C        40.5960097397       17.1547388469        3.5356443239
  C        28.7118587585       14.0906084826        5.7506011470
  C        28.0977850147       12.9368678027        5.0311985113
  C        28.8468010806       12.2040141328        4.0968797270
  C        28.2652152826       11.1436363948        3.4070900028
  C        26.9200275497       10.7868519933        3.6281046649
  C        26.1882905753       11.5035905801        4.5932213623
  C        26.7673895244       12.5668077544        5.2840604387
  C        26.2826234250        9.6951059571        2.8529794259
  C        26.2926183005        9.7072502645        1.4313771713
  C        26.8063408958       10.8130148701        0.6834301597
  C        18.1354467570        3.1809818398       10.3171190206
  C        17.4060027473        4.2781639499       11.0157004592
  C        16.3902913746        3.9997193843       11.9432157164
  C        15.7424508615        5.0396343209       12.6067118552
  C        16.0941766892        6.3834062963       12.3670070265
  C        17.0834637303        6.6530137272       11.4031613270
  C        17.7326714633        5.6157364953       10.7381106491
  C        15.4697789116        7.4910673091       13.1300762762
  C        15.4850928743        7.4904126018       14.5517974770
  C        16.1867183639        6.4968488884       15.3049660575
  C        42.9456924031       31.8595567954       10.0727910873
  C        43.6459770709       30.7718388719       10.8167355238
  C        44.5914438233       31.0931048782       11.8028951061
  C        45.1971095368       30.0875347713       12.5505570029
  C        44.8707101197       28.7344650931       12.3356466239
  C        43.9449949167       28.4201696066       11.3223057894
  C        43.3362454279       29.4253418932       10.5742476095
  C        45.4882457083       27.6551407298       13.1388517910
  C        45.4925532704       27.6808412724       14.5605491862
  C        44.8055558575       28.6889262822       15.3072061254
  C        14.8561264661        8.5629058225       15.2641754890
  C        14.8744680711        8.5628274361       12.4514952502
  C        42.9464199252       31.9615073429        5.8089731600
  C        43.6916357907       30.8853812248        5.0955766887
  C        44.6562334766       31.1912844938        4.1232604343
  C        45.2777576286       30.1717023605        3.4055421946
  C        44.9539577760       28.8213760251        3.6431519809
  C        44.0205402062       28.5237129865        4.6540010189
  C        43.3922573677       29.5404750209        5.3661703163
  C        45.5629346059       27.7239770290        2.8578501944
  C        45.5331814677       27.7173147628        1.4365481237
  C        44.8269199224       28.7075928322        0.6836007738
  C        35.0479988089       26.6617160729        0.7455050691
  C        34.9812052710       26.6503375859        3.5554054979
  C        18.1485179437        3.2468821154        5.7065055332
  C        17.4299403040        4.3436978762        4.9972245847
  C        16.4147207902        4.0524525787        4.0736487691
  C        15.7663850009        5.0830884107        3.3982917625
  C        16.1209762271        6.4283441180        3.6210574562
  C        17.1123356132        6.7117062029        4.5783528911
  C        17.7600225360        5.6827872928        5.2580953759
  C        15.4904242439        7.5240434423        2.8486367744
  C        15.4962321657        7.5073773301        1.4274961670
  C        16.1930156197        6.5057050631        0.6807807547
  H        10.6723021139       12.4659447666        3.9046977879
  H        11.6943337996       10.5511138251        2.6627879094
  H        15.3914244725       11.1683578773        4.7724130382
  H        14.3511629762       13.0712647106        6.0175780409
  H        13.3758470143       11.6310362837        1.2012992761
  H        50.3226412670       22.7485568647        3.9869874411
  H        49.3194136151       24.6229497196        2.6809352856
  H        45.6417416719       24.1606386452        4.8633770902
  H        46.6627336937       22.2897520939        6.1716400382
  H        47.6294500006       23.5757139897        1.2461190863
  H        14.8719552354        8.5882222258        4.6085497879
  H        50.2867538452       22.7027419997       12.0600544336
  H        49.2687360920       24.5755956274       13.3600871147
  H        45.6098790827       24.1086419597       11.1462616715
  H        46.6520144409       22.2533418701        9.8320239506
  H        47.6073477149       23.5516652910       14.7967740757
  H        40.6105092873       17.0605643381       11.3821012482
  H        48.6867641446       14.0953803640        7.8000199804
  H        10.6813528482       12.4673138351       12.0936308452
  H        11.6893357950       10.5253281308       13.2973793335
  H        15.3928048465       11.1578574246       11.2046004858
  H        14.3645021059       13.0862752225        9.9891568068
  H        13.3754764623       11.6220148929       14.7531182169
  H        47.9301780366       14.2190304049        9.7109187509
  H        47.7796371281       14.3730612049        6.4948289746
  H        49.0813431848       18.5511440843       10.8663569218
  H        10.4156903772       14.1344532875        7.9986104211
  H        24.4742383489        3.0317295700        3.8995838595
  H        25.6004114958        4.8879189251        2.6587496658
  H        23.2013886085        7.7543111872        4.7866506247
  H        22.0950075498        5.8886169696        6.0306171881
  H        23.8097462322        5.7902234155        1.2072312055
  H        36.3615084045       32.2068446306        3.9823563826
  H        35.1944170639       30.4032527219        2.7164983348
  H        37.4142214964       27.4421265997        4.9085349648
  H        38.5633150216       29.2595485312        6.1830652753
  H        36.9587395917       29.4642075436        1.3025176243
  H        25.6819466009        8.6199952895        4.6126339111
  H        36.4534090271       32.2465534341       12.1102036697
  H        35.3363038057       30.4354473879       13.4088351086
  H        37.5394740291       27.4892784295       11.1781665537
  H        38.6302075082       29.3122637560        9.8656308961
  H        37.0133766974       29.4770393056       14.8558585209
  H        46.1087471847       26.5873239753       11.3855237615
  H        44.6682565283       35.1162097029        7.8141313408
  H        24.4641943494        3.0464242072       12.0571448071
  H        25.6096230520        4.8920432165       13.2872513416
  H        23.1856495399        7.7716443609       11.2071851061
  H        22.0539159251        5.9146424366        9.9746804764
  H        23.8118634132        5.7950925918       14.7582528457
  H        44.9536150305       34.3902276855        9.6950794774
  H        44.9021972719       34.2070778395        6.4905512683
  H        40.6664637769       33.2090927012       10.8530093592
  H        23.1501688240        1.9582479893        8.0019734289
  H        25.8874481575       19.7430443476        3.8115291707
  H        23.6923423498       19.8536218323        2.6320314703
  H        22.3350536674       16.4199138284        4.8390879759
  H        24.5271159157       16.3314291322        6.0264599220
  H        23.7279228275       17.8514046303        1.2247110397
  H        35.0937079982       15.5564049032        3.8818440213
  H        37.2446011968       15.4702392314        2.6221806571
  H        38.6872060901       18.8391285422        4.8753774747
  H        36.5395037086       18.8928292885        6.1528095574
  H        37.2149198836       17.4350514613        1.2163234344
  H        20.3724353752       18.1504084349        4.6580582362
  H        35.1166302700       15.4805323189       12.0637724733
  H        37.2409574532       15.4106217120       13.3680918582
  H        38.7282133741       18.7554298299       11.1080228745
  H        36.6017934755       18.8041920712        9.7983896242
  H        37.2181519588       17.4047673079       14.7679038729
  H        35.1591326289       26.6877842379       11.4025923142
  H        28.4837384381       21.1283101162        7.9934246460
  H        25.7356267317       19.6898629476       12.0848796514
  H        23.5509321739       19.7788567920       13.2939830932
  H        22.2954472249       16.1958828854       11.2733223346
  H        24.4783448490       16.1311399012       10.0534735160
  H        23.6993935780       17.7910911398       14.7791510877
  H        29.0325791838       21.7004840603        9.7685413869
  H        29.0789521180       21.8204339384        6.6137909992
  H        32.0575529292       18.5433656493       10.9996940676
  H        27.3394481674       19.0945850648        8.0874751956
  H        14.8393682697       19.6781751946       12.1054751833
  H        17.0021821973       19.7509057219       13.3490720369
  H        18.2991129460       16.2068639535       11.2859648748
  H        16.1331826565       16.1517710653       10.0391692007
  H        16.9183510043       17.7812154787       14.8516577679
  H        46.0707042412       15.4201907313       12.0409979186
  H        43.9359318569       15.3498271939       13.3298001930
  H        42.5256102034       18.7857505846       11.1598179599
  H        44.6608099207       18.8309270743        9.8602209643
  H        44.0010341742       17.2986063119       14.7833210890
  H        20.2754442117       17.9463336770       11.4116494681
  H        46.0386394390       15.4054387828        4.0031396253
  H        43.9158302097       15.3529756290        2.7004598275
  H        42.5233491944       18.8122210334        4.8445109004
  H        44.6519822480       18.8495821586        6.1496120090
  H        43.9973245576       17.3037686706        1.2317600888
  H        46.1990380322       26.6824261287        4.6233157557
  H        52.7409202228       21.0626562688        8.1945735732
  H        14.8514679995       19.7157575969        3.9253625505
  H        17.0459070520       19.8496250308        2.7431132503
  H        18.3782745297       16.3342459289        4.8315727198
  H        16.1846478421       16.2241166005        6.0242068488
  H        16.9455938985       17.8262914821        1.2980380502
  H        52.3218568246       21.6732609827        6.2947791914
  H        52.0131555007       21.7021186703        9.4955963595
  H        49.0676916636       18.6073833167        5.2034467551
  H        13.2471715991       19.0175445387        7.9776256943
  H        29.9459062348       12.5064122831       12.1895566180
  H        28.8927212083       10.5930586761       13.3931723821
  H        25.2735941126       11.1706718308       11.1411690691
  H        26.3463176314       13.0734442547        9.9282459574
  H        27.1886144494       11.6791736460       14.7728400167
  H        30.9842533880       22.7817119843       12.0113083612
  H        31.9843085390       24.6685875520       13.2977006652
  H        35.6869120241       24.1402324193       11.1728518459
  H        34.6644424547       22.2635034967        9.8754632570
  H        33.6360653384       23.5966677760       14.7525269803
  H        25.7402734764        8.6091406725       11.3673094207
  H        30.8174171452       22.6830195867        3.8252088627
  H        31.8386968798       24.5698170729        2.5572569190
  H        35.4143803745       24.2185531031        4.9246048538
  H        34.3724040730       22.3459133463        6.2029728803
  H        33.5586359344       23.5970536118        1.1985776811
  H        40.5926000217       17.1264862248        4.6237177310
  H        32.5391560462       14.1815601097        8.1704885036
  H        29.8863233271       12.4766283175        3.9294241882
  H        28.8516226301       10.5745731975        2.6888935136
  H        25.1477621578       11.2395873505        4.7708428779
  H        26.1982776149       13.1371497031        6.0144282336
  H        27.1656854924       11.6856675748        1.2209925633
  H        33.3306766182       14.2800402712        6.3418078926
  H        33.4027394942       14.3870246487        9.5461064387
  H        31.9404058521       18.5604452866        5.0363538682
  H        30.2536717294       14.1960498655        8.0097159807
  H        16.1183434487        2.9631945425       12.1296600904
  H        14.9530328393        4.8201592262       13.3223797923
  H        17.3657629842        7.6859161359       11.2099997476
  H        18.5146445699        5.8185057153       10.0102272404
  H        16.7533057085        5.7395330290       14.7714655784
  H        44.8277493713       32.1401715638       11.9771392385
  H        45.9369443034       30.3412776219       13.3065351332
  H        43.6823668488       27.3781010037       11.1520771008
  H        42.5998126213       29.1899932795        9.8094068842
  H        44.2302479793       29.4367523055       14.7689350996
  H        14.8506653577        8.5460340364       11.3632758081
  H        44.8998227509       32.2339557460        3.9318196422
  H        46.0246555001       30.4129363295        2.6522990477
  H        43.7635986219       27.4839829817        4.8455925132
  H        42.6457809535       29.3176406025        6.1246291580
  H        44.2685034868       29.4705416303        1.2181919141
  H        34.9208111980       26.6671945453        4.6420587142
  H        36.6052202809       35.1341379141        8.1805714028
  H        16.1436371092        3.0128849940        3.9038736138
  H        14.9740590871        4.8562455087        2.6882072966
  H        17.3957943917        7.7471737522        4.7553198461
  H        18.5428267274        5.8932615884        5.9829323466
  H        16.7645378782        5.7555157787        1.2191938593
  H        36.2788238047       34.4824189915        6.2731793212
  H        36.3809542311       34.2090633403        9.4994150706
  H        40.5787631518       33.2016520601        5.1541578137
  H        17.4711226789        1.9473029786        7.9739528971
  H        29.2155175908       19.3401776542       12.6306051505
  H        30.4321584142       15.5561783387        3.8279926190
  H        30.9308299174       15.4344108147       12.3430727046
  H        28.3091651405       17.8446298239       14.8699262472
  H        29.6614062074       15.5160544077       15.1065267555
  H        31.6886154224       19.5826925562        1.7772957204
  H        32.8030359168       18.7619465653       15.8713163369
  H        18.8532066712        0.8690976165       12.3350222508
  H        40.5282397129       35.2289224463        3.9521278578
  H        42.3238354458       34.4187803987        3.5906334777
  H        22.0878604268        0.6922200010       12.3516980433
  H        11.5967270447       18.7127022647       12.3821536449
  H        52.2648018071       18.4307175713        3.6774846392
  H        49.2551772194       16.4762276884        3.5843707003
  H        10.1500713418       15.7983744197       12.2931102361
  H        50.8498322364       17.6924254533        3.9541028467
  H        10.0458661320       17.3948774323       12.0519597907
  H        20.2143692323        0.0023533244       12.0420276612
  H        39.1838124183       36.1243629465        3.6862628648
 Ni        30.8589730508       17.7254241969        2.9958863173
 Ni        31.5781421247       16.8632584670       -0.9968056472
 Ni        30.2268983701       18.4323406755        0.1701695938
 Ni        30.0183659610       17.2765088565       13.3156687438
  O        10.6499523012       14.3652318399        5.4859299620
  O        12.6132868212       14.6577437155        6.5838972177
  O        49.1474975629       16.8458679661        7.9896137184
  O        50.3501035773       20.9358263476        5.6479871826
  O        48.3484626561       20.5932331929        6.6659093274
  O        11.0512906448       17.0536204602        6.5007574325
  O        50.3207009342       20.8816810367       10.4067988234
  O        48.3466155321       20.5865899498        9.3269459208
  O        49.5434555229       18.2483132451       10.0680230665
  O        12.3593161697       18.6243790301        7.9993670690
  O        48.6930389638       14.1489068881        6.7512015127
  O         8.2098785516       14.2105592995        9.3225275109
  O        10.7353122599       14.5067734733       10.6643197185
  O        12.5718167835       14.5829862997        9.3283663531
  O        22.8448105742        2.0438668159        5.4861709688
  O        21.6064792816        3.5931570107        6.5879522569
  O        42.0579134161       34.1372187090        7.9789168789
  O        37.9815057302       33.1377346360        5.5723359488
  O        39.2154977532       31.5739157531        6.6640663884
  O        20.3085928008        1.0396998531        6.5018388868
  O        38.0245804847       33.1853604130       10.4154491514
  O        39.2184691226       31.5829947748        9.3272210533
  O        40.6522423607       33.7692342713       10.0600166526
  O        18.2558632449        1.3761956354        7.9967006803
  O        44.6221648714       35.1006156316        6.7588428520
  O        24.2053820041        0.0000160805        9.3207793247
  O        22.7533883681        2.0586158861       10.5834919941
  O        21.6240869179        3.5954947996        9.3409758693
  O        27.5897154093       18.7575196382        5.4102245242
  O        26.7365396781       17.0017020147        6.5835343203
  O        30.5996815700       19.4107534638        8.0792038350
  O        33.5020348903       16.4184705868        5.5067085964
  O        34.2238174603       18.2487532338        6.6564437658
  O        29.5521291483       17.0838665365        6.5752122537
  O        33.5497003391       16.3422585828       10.3377389287
  O        34.2991990088       18.2403210713        9.3265826388
  O        31.6437536408       18.3108460870       10.1503722848
  O        30.3248629016       15.1647345351        8.0047505605
  O        28.5065618951       21.0945277559        6.9164355792
  O        28.5162654046       20.9529971000        9.4200344613
  O        27.4535147225       18.6763455371       10.6579416471
  O        26.6910251283       16.9275714175        9.4107961049
  O        13.1455542737       18.6941390288       10.5862141613
  O        13.9192493758       16.9166482357        9.4053788170
  O        50.5958030367       19.3499606202        8.0197803047
  O        47.6815260435       16.3272041855       10.4171693547
  O        46.9504432590       18.1756962595        9.3246729482
  O        11.0697982112       17.0152680226        9.4891884052
  O        47.6719818962       16.3366206977        5.6506203704
  O        46.9239853880       18.2357824581        6.6618002748
  O        49.5684508192       18.3175297781        5.9820094689
  O        10.3185413939       15.1003280049        7.9969931980
  O        52.6706807321       21.0279241587        9.2417804855
  O        12.1467574158       20.8912480654        6.6733028160
  O        13.1066209563       18.6148225577        5.3258542485
  O        13.9608264503       16.9891295911        6.6618580256
  O        30.0006474867       14.4289492055       10.5796895586
  O        28.0776824495       14.6522637359        9.4059864166
  O        32.0986647701       16.9215416316        8.0077473737
  O        30.9586632178       20.9418974527       10.4162521438
  O        32.9383020436       20.6033280842        9.3370711496
  O        29.5612116432       17.0828487738        9.5001879340
  O        30.7550987329       20.8753927724        5.5726460949
  O        32.7425062161       20.6569887339        6.6636687682
  O        31.5643221552       18.3191877093        5.9106329612
  O        28.2200480040       18.6849745148        8.0785082817
  O        32.4913442446       14.2168644527        9.2457720115
  O        32.4454736322       14.2869674242        6.7416087014
  O        29.8992504278       14.4346820097        5.4202364306
  O        28.0045336421       14.6506131198        6.6613516311
  O        17.8892556734        1.9665750556       10.6627730263
  O        18.9562610807        3.5271241968        9.4079468475
  O        39.1685586634       34.1385360624        7.9970199763
  O        43.2801381323       33.0589624027       10.3316432124
  O        42.0342534524       31.5065496439        9.2415176639
  O        20.3176092886        1.0366246695        9.4798192332
  O        43.2760003112       33.1824677836        5.5748978284
  O        42.0051444359       31.5841054093        6.5830024681
  O        40.5789573067       33.7748010772        5.9359506086
  O        22.3673498952        1.3845712479        7.9978239349
  O        36.6728094758       35.0997526173        9.2332548701
  O        16.4456955566        0.0642934557        6.6683063150
  O        17.9363738075        2.0432089931        5.3263818386
  O        18.9190751598        3.5930958749        6.6657880181
  O        29.7768398802       18.7679091252       12.0740634345
  O        31.0541440302       16.2644250104        4.0826134311
  O        31.0912600892       16.3358518073       11.9979937709
  O        30.3315681119       15.6114961835       14.4057644234
  O        32.0738461812       18.6228576387       15.2434526239
  O        30.8352219856       19.1184212442        1.8308547225
  O        29.1167277016       18.3125434328       14.5912416810
  O        39.4568737447       35.2437678282        4.0019693313
  O        19.1411635867        0.0045270485       11.9905607956
  O        41.9695100740       35.1727308531        4.0871996697
  O        21.6914132908       -0.0690237473       11.8957786180
  O        51.3649419427       18.6142266720        4.0052772557
  O        10.7507493883       18.7471603927       11.9049658689
  O        50.0795686011       16.4127472122        4.0918348148
  O         9.5243369788       16.4831348409       11.9911425080
 Zr         9.2959910320       16.0528915955        6.1823225579
 Zr        49.8365521499       16.0069159672        9.7466406841
 Zr        22.0735821786        0.0299513976        6.1890058777
 Zr        42.4609222413       35.1537307717        9.8010281652
 Zr        29.5613778691       19.1321891100        6.3794987520
 Zr        29.5468039879       19.1455582459        9.9276160245
 Zr        11.0370309371       19.0519909191        9.8274695409
 Zr        11.0438969392       19.1546391913        6.2507027041
 Zr        31.3332696588       16.1089153686        9.8183136334
 Zr        31.3659324922       16.0460918197        6.2172459448
 Zr        18.6012429356       -0.0013295713        9.7632749752
 Zr        18.5067538038       -0.0075881145        6.2135360099
 Zr        12.3027122445       16.3237886960        7.9892589931
 Zr        48.6153905455       18.8326833271        8.0097187130
 Zr        20.3155069732        2.4737979786        7.9901359945
 Zr        40.6431056152       32.6868017931        7.9775909979
 Zr        28.3096569177       16.3484891708        8.0326131401
 Zr        32.6081185906       18.8696624446        8.0196844695
  H        29.1730988198       17.7699006929        0.9406774254
