     571
 i =      333, E =     -4761.6429502051
  C        11.8587921969       14.0534750786        5.7415533993
  C        12.4562806692       12.8905759749        5.0232517756
  C        11.7044707321       12.1714274085        4.0818360054
  C        12.2808649981       11.1092455370        3.3894777875
  C        13.6215146242       10.7396076168        3.6170482644
  C        14.3548247779       11.4434496913        4.5902058827
  C        13.7819259963       12.5084051597        5.2817353822
  C        14.2610395333        9.6489433247        2.8436364798
  C        14.2562139606        9.6567715575        1.4219365828
  C        13.7429776967       10.7588715303        0.6680452747
  C        49.1269582261       21.2331882457        5.8796728330
  C        48.5502038790       22.4011940629        5.1525872063
  C        49.3001644038       23.0684291520        4.1714996705
  C        48.7332205079       24.1075817611        3.4383068814
  C        47.4027343201       24.5093135818        3.6670776129
  C        46.6718718528       23.8605593320        4.6807349672
  C        47.2343439960       22.8156435185        5.4100541244
  C        46.7724197984       25.5869908091        2.8698185177
  C        46.7611899256       25.5572877092        1.4480533746
  C        47.2610800904       24.4421634246        0.7045631499
  C        14.8602203598        8.5704646509        0.7086788787
  C        14.8919109611        8.5970598511        3.5202972017
  C        49.1132715677       21.2034206072       10.1453441948
  C        48.5278616112       22.3648168560       10.8725520770
  C        49.2669857207       23.0254308113       11.8655950562
  C        48.6906287920       24.0599825643       12.5970613035
  C        47.3602715820       24.4568409595       12.3586977284
  C        46.6399623993       23.8120436645       11.3350355777
  C        47.2135497557       22.7761439440       10.6032636353
  C        46.7217380084       25.5317659459       13.1497193896
  C        46.7333549508       25.5280748429       14.5714204419
  C        47.2487386587       24.4288358472       15.3278002684
  C        40.6333044057       17.1426449438       15.3199762812
  C        40.6533957672       17.1682125958       12.5108441520
  C        11.8830817225       14.0865119641       10.2855237017
  C        12.4724331753       12.9107715662       10.9897671023
  C        11.7148684294       12.1774424960       11.9157470447
  C        12.2814790752       11.0949963414       12.5841496550
  C        13.6203585817       10.7213880264       12.3524451623
  C        14.3584070873       11.4371176161       11.3918206631
  C        13.7929573623       12.5182792481       10.7191251506
  C        14.2539395479        9.6246317748       13.1228720804
  C        14.2524899871        9.6444881086       14.5447127882
  C        13.7424699396       10.7533654464       15.2917908163
  C        22.5143204765        3.2446007521        5.7535618730
  C        23.2346056941        4.3473934231        5.0557781951
  C        24.2320853320        4.0622228891        4.1113631306
  C        24.8658422364        5.0980211900        3.4298851597
  C        24.5184518565        6.4419536726        3.6721769565
  C        23.5493492735        6.7186020374        4.6539160062
  C        22.9107722895        5.6845177727        5.3339479429
  C        25.1303368822        7.5449189541        2.8955764002
  C        25.1005259664        7.5376531075        1.4740080021
  C        24.3926268272        6.5413555333        0.7293059820
  C        38.2986329182       31.9279301234        5.8517211596
  C        37.5580858273       30.8387602801        5.1494787248
  C        36.5931578835       31.1454149591        4.1775704111
  C        35.9639643141       30.1273717389        3.4660299856
  C        36.2842450253       28.7761928424        3.7032636045
  C        37.2185938175       28.4768797520        4.7128057482
  C        37.8518072365       29.4939904766        5.4236441297
  C        35.6749041131       27.6878760494        2.9037248613
  C        35.7159916454       27.7028474802        1.4819532536
  C        36.4300870260       28.7029999261        0.7491550720
  C        25.7256253093        8.6056272120        0.7528336269
  C        25.7331810975        8.6174032562        3.5649705771
  C        38.3307963340       31.9612530664       10.1599186804
  C        37.6143881694       30.8879307591       10.9093413829
  C        36.6820076451       31.1974394690       11.9115469512
  C        36.0726196965       30.1803012013       12.6443021468
  C        36.3806703646       28.8270439571       12.3989386844
  C        37.2939258813       28.5273350262       11.3693706126
  C        37.9052002288       29.5410754122       10.6378603614
  C        35.7659765781       27.7286097269       13.1807226685
  C        35.7623844168       27.7238180310       14.6032762108
  C        36.4509352432       28.7138524197       15.3724849235
  C        46.1352812497       26.6206857290       15.2815489878
  C        46.0878707716       26.5801763740       12.4736703378
  C        22.4614226083        3.2558813301       10.2580767431
  C        23.1565715762        4.3632228811       10.9814690160
  C        24.1584575571        4.0747967673       11.9219385154
  C        24.7884354074        5.1031672278       12.6185409533
  C        24.4369295343        6.4500135539       12.3977193043
  C        23.4579123521        6.7316042095       11.4259220577
  C        22.8232384349        5.7034825092       10.7296606256
  C        25.0714702000        7.5461841656       13.1715134041
  C        25.0705677762        7.5377732326       14.5944311671
  C        24.3766677912        6.5423063277       15.3524606476
  C        26.6263819357       17.8629940852        5.7780600621
  C        25.3185722925       17.9114434245        5.0545376000
  C        25.0572857729       18.9107119059        4.1038456734
  C        23.8431396898       18.9332072034        3.4198097987
  C        22.8532161379       17.9594533866        3.6639562415
  C        23.1107015441       16.9827562154        4.6445212043
  C        24.3266820301       16.9550960402        5.3261882521
  C        21.5793734996       17.9461094588        2.8999060210
  C        21.5785926420       17.9256848342        1.4771627229
  C        22.7840570923       17.8040738676        0.7161581298
  C        34.4372177698       17.1956610144        5.9169572597
  C        35.7279214516       17.1496887859        5.1696384765
  C        35.9289182966       16.1913643963        4.1641038108
  C        37.1098417110       16.1819248174        3.4272947140
  C        38.1219955258       17.1290005619        3.6771675457
  C        37.9232074201       18.0679912661        4.7071852207
  C        36.7393276816       18.0833983941        5.4406631238
  C        39.3770969977       17.1398294199        2.8929086603
  C        39.3741937773       17.1588738208        1.4714251620
  C        38.1681557714       17.2835254575        0.7122982009
  C        20.3316418100       17.9422545640        0.7689194953
  C        20.3544860073       17.9473211031        3.5823331037
  C        34.4705676625       17.2447043808       10.1845297325
  C        35.7729274080       17.1709940337       10.9083130217
  C        35.9884871123       16.1887699858       11.8862584206
  C        37.1757510520       16.1715908124       12.6126553232
  C        38.1753392840       17.1358225340       12.3795520183
  C        37.9664258912       18.0927738254       11.3692944008
  C        36.7769831363       18.1151415989       10.6463043611
  C        39.4221663123       17.1563461245       13.1745884863
  C        39.3973247997       17.1677621751       14.5953277738
  C        38.1788201012       17.2856957220       15.3355899082
  C        35.1225467929       26.6471462578       15.3031382005
  C        35.1800333813       26.6575276168       12.4935355328
  C        26.5695307136       17.8270540847       10.3233595510
  C        25.2538554073       17.8734973432       11.0284789109
  C        24.9852600237       18.8856751310       11.9622905960
  C        23.7684305178       18.9111284564       12.6379133317
  C        22.7898781874       17.9249366949       12.4020664963
  C        23.0517788106       16.9380864868       11.4345391989
  C        24.2699792617       16.9100886909       10.7580097693
  C        21.5269129006       17.9083156174       13.1764897976
  C        21.5518225620       17.9050874798       14.5980646009
  C        22.7709543690       17.7943535063       15.3396307604
  C        14.0465487808       17.8287182560       10.2892272398
  C        15.3502671319       17.8856577273       11.0153452152
  C        15.6064255449       18.8894353929       11.9625455973
  C        16.8149787487       18.9106638869       12.6560508566
  C        17.8017062094       17.9308703720       12.4248416735
  C        17.5501337795       16.9510992620       11.4457631149
  C        16.3410827203       16.9253374261       10.7536495564
  C        19.0708899819       17.9154490746       13.1935721599
  C        19.0703975741       17.9169396312       14.6160701359
  C        17.8638157102       17.8192920555       15.3781171527
  C        46.8067089487       17.2198095953       10.1593220099
  C        45.5184738330       17.1622305473       10.9071228327
  C        45.3128011667       16.1885549725       11.8965027443
  C        44.1323447731       16.1759183900       12.6344220335
  C        43.1290084458       17.1370887289       12.4038825514
  C        43.3321211283       18.0905401804       11.3882208900
  C        44.5132247092       18.1072067468       10.6515600908
  C        41.8762260565       17.1528054010       13.1914754001
  C        41.8808098272       17.1538504510       14.6130880440
  C        43.0890539940       17.2469659611       15.3730980963
  C        20.3175679900       17.9308448682       15.3237476018
  C        20.2946632786       17.8935512519       12.5106340111
  C        46.7855986021       17.2311833329        5.8898241506
  C        45.4815774106       17.1265731261        5.1758290630
  C        45.2620698621       16.1315453258        4.2114019480
  C        44.0737198273       16.1085447841        3.4856039948
  C        43.0759778506       17.0773782521        3.7077671411
  C        43.2852003440       18.0410548937        4.7117552199
  C        44.4747683615       18.0707088781        5.4322473593
  C        41.8308789412       17.1058266156        2.9096893238
  C        41.8578151940       17.1281481263        1.4889958708
  C        43.0782077115       17.2320358886        0.7497772248
  C        46.1531263362       26.6371538498        0.7263142668
  C        46.1625931869       26.6561772915        3.5359667821
  C        14.0462216862       17.8325188894        5.7090784899
  C        15.3677585837       17.9090614133        5.0198223310
  C        15.6404373401       18.9255778938        4.0921111627
  C        16.8697504847       18.9650704774        3.4379740595
  C        17.8543823493       17.9872375137        3.6853345723
  C        17.5886601735       16.9999721074        4.6517032654
  C        16.3613464725       16.9599453718        5.3094624518
  C        19.1215883802       17.9642858056        2.9158952964
  C        19.0967958278       17.9407751285        1.4943431698
  C        17.8767088605       17.8299266610        0.7542773070
  C        28.8123921439       14.0909732796       10.3904012194
  C        28.2003194994       12.9153984033       11.0764900842
  C        28.9308672116       12.1630019068       12.0080829782
  C        28.3338203717       11.0870822387       12.6603679926
  C        26.9922922996       10.7386189122       12.4040595500
  C        26.2831985509       11.4705676236       11.4348752319
  C        26.8779587063       12.5472079577       10.7815735375
  C        26.3267230802        9.6570494661       13.1664661370
  C        26.3232967568        9.6797117625       14.5876406464
  C        26.8348148402       10.7893829161       15.3325912463
  C        32.1793563205       21.2373837473       10.1459083339
  C        32.7765445670       22.4017658200       10.8687038771
  C        32.0233276310       23.0890856509       11.8329843392
  C        32.5920188490       24.1306268619       12.5602647282
  C        33.9305829392       24.5130040210       12.3458358126
  C        34.6671687493       23.8434996616       11.3504983234
  C        34.1001635986       22.7971249424       10.6243780296
  C        34.5563208099       25.5896957862       13.1485394302
  C        34.5347425166       25.5643568631       14.5703048664
  C        34.0145834805       24.4524485118       15.3053589638
  C        25.7142096904        8.6023257983       15.3078049608
  C        25.6846490396        8.6090636375       12.4942448343
  C        32.0776702238       21.1991123565        5.8758900374
  C        32.6490533851       22.3593028415        5.1276939967
  C        31.9124844800       23.0152166555        4.1291279909
  C        32.4853669086       24.0557440428        3.3991273107
  C        33.8087618992       24.4714413794        3.6485750000
  C        34.5266613382       23.8285307445        4.6753858447
  C        33.9591211096       22.7843979971        5.4004498919
  C        34.4492287920       25.5584237798        2.8704539811
  C        34.4781469220       25.5491810181        1.4484792740
  C        33.9862657603       24.4461479224        0.6818181870
  C        40.6213202247       17.1337384867        0.7642142421
  C        40.5996788789       17.1297266101        3.5737817000
  C        28.7550511012       14.0705401706        5.8154156419
  C        28.1527436172       12.9193549091        5.0780014722
  C        28.8911706718       12.2281468726        4.1053599059
  C        28.3166457610       11.1667869054        3.4095139275
  C        26.9870448073       10.7710709952        3.6593478361
  C        26.2659776146       11.4504338266        4.6592515807
  C        26.8391919510       12.5112028144        5.3577874902
  C        26.3472997708        9.6785941473        2.8868144601
  C        26.3349825210        9.6910717852        1.4646832780
  C        26.8378195729       10.7964150239        0.7086740840
  C        18.1355272733        3.1810727779       10.3171472555
  C        17.4063334141        4.2782915513       11.0157912607
  C        16.3904554974        3.9999765644       11.9431606565
  C        15.7427678863        5.0399783024       12.6066376033
  C        16.0948881529        6.3836837188       12.3671334233
  C        17.0844571410        6.6531717539       11.4035503069
  C        17.7335305887        5.6158072962       10.7385017259
  C        15.4704614300        7.4913479351       13.1301537593
  C        15.4856076270        7.4905652080       14.5518717138
  C        16.1871542862        6.4969510560       15.3050547758
  C        42.9458322895       31.8596145946       10.0728703260
  C        43.6461946397       30.7718875482       10.8168264582
  C        44.5914448361       31.0932196671       11.8031528939
  C        45.1971617655       30.0876679392       12.5508136837
  C        44.8709952128       28.7345742147       12.3357578168
  C        43.9455666166       28.4202360574       11.3221729727
  C        43.3367503364       29.4253726864       10.5741214496
  C        45.4885550384       27.6552516696       13.1389283513
  C        45.4926214040       27.6808410286       14.5606231247
  C        44.8055418691       28.6888716945       15.3072798516
  C        14.8564943465        8.5629659127       15.2642452604
  C        14.8752947465        8.5631874787       12.4515762108
  C        42.9464939669       31.9617221608        5.8090025985
  C        43.6918347682       30.8855692296        5.0956083345
  C        44.6561943907       31.1914836085        4.1230860569
  C        45.2777141362       30.1718989165        3.4053417119
  C        44.9542060521       28.8215568605        3.6432188881
  C        44.0210588252       28.5238917224        4.6543233869
  C        43.3928079415       29.5406612141        5.3665148470
  C        45.5631488233       27.7241191037        2.8579411157
  C        45.5332445880       27.7173450339        1.4366398193
  C        44.8268721314       28.7075360612        0.6836759469
  C        35.0962072822       26.6382409184        0.7485556022
  C        35.0592196777       26.6150577511        3.5590523109
  C        18.1486900310        3.2470673460        5.7066004086
  C        17.4301419320        4.3438534917        4.9973320733
  C        16.4147262595        4.0525974215        4.0739622750
  C        15.7664357249        5.0832350904        3.3985885227
  C        16.1213043000        6.4284537033        3.6211323039
  C        17.1129233467        6.7118287013        4.5781402414
  C        17.7606002215        5.6829113174        5.2579056811
  C        15.4907242355        7.5241227879        2.8487052542
  C        15.4965105920        7.5074100615        1.4275726176
  C        16.1933415693        6.5057604729        0.6808710325
  H        10.6722706872       12.4653985403        3.9049671797
  H        11.6945214636       10.5505772196        2.6631296584
  H        15.3919630596       11.1691063690        4.7717096975
  H        14.3515518316       13.0718633121        6.0168634328
  H        13.3759397376       11.6309824098        1.2013634171
  H        50.3228328913       22.7483084654        3.9866685339
  H        49.3196701382       24.6227856550        2.6806536935
  H        45.6424484660       24.1614815431        4.8640526647
  H        46.6634351553       22.2904639064        6.1722682576
  H        47.6296897727       23.5758188561        1.2462644775
  H        14.8724739602        8.5884243840        4.6086069148
  H        50.2870112715       22.7025349436       12.0605506809
  H        49.2689967564       24.5753897721       13.3606150535
  H        45.6106299583       24.1094297874       11.1458153422
  H        46.6528508781       22.2540773990        9.8315440185
  H        47.6075823360       23.5517468513       14.7968971393
  H        40.6604637194       17.1337880612       11.4231149211
  H        48.6871031588       14.0949845366        7.8000586475
  H        10.6813343745       12.4663642207       12.0930190811
  H        11.6896562674       10.5244546577       13.2966977863
  H        15.3939229173       11.1594344636       11.2060427439
  H        14.3654069646       13.0877835471        9.9907810799
  H        13.3756785157       11.6220017013       14.7531654609
  H        47.9302981293       14.2182158301        9.7109545483
  H        47.7800807877       14.3736844415        6.4952613069
  H        49.0845529149       18.5526638283       10.8676353851
  H        10.4162575980       14.1342566778        7.9986459966
  H        24.4883520797        3.0223048633        3.9215471936
  H        25.6390541245        4.8759335367        2.6975902232
  H        23.2735937131        7.7530896645        4.8478990831
  H        22.1405122019        5.8897593997        6.0734107816
  H        23.8304071236        5.7861662559        1.2707809553
  H        36.3611667129       32.1895241106        3.9811872622
  H        35.2167844906       30.3703873638        2.7136809796
  H        37.4743223638       27.4367889322        4.9044890030
  H        38.5987990266       29.2692474106        6.1813761042
  H        36.9924252336       29.4519984534        1.2990392884
  H        25.7691538691        8.6007941227        4.6527718399
  H        36.4542451597       32.2417422064       12.1130897074
  H        35.3430178096       30.4273385556       13.4123683621
  H        37.5456280589       27.4871646894       11.1732100436
  H        38.6311361028       29.3134847268        9.8610203434
  H        37.0301486222       29.4709695250       14.8516247940
  H        46.1094700350       26.5876826001       11.3856428935
  H        44.6684111492       35.1162707829        7.8139803813
  H        24.4345678401        3.0360035457       12.0881695344
  H        25.5692268045        4.8722345258       13.3400538967
  H        23.1748512787        7.7667655997       11.2461306950
  H        22.0518292473        5.9186282072        9.9938217077
  H        23.8016611025        5.7883854683       14.8226668905
  H        44.9541825876       34.3906964381        9.6953450793
  H        44.9021487293       34.2069167545        6.4906947102
  H        40.6667183052       33.2096115115       10.8533767922
  H        23.1505302689        1.9580490058        8.0055116991
  H        25.8183009009       19.6646480112        3.9163927379
  H        23.6460319773       19.7145056135        2.6887990876
  H        22.3589366397       16.2213186039        4.8422613366
  H        24.5357288760       16.1867260834        6.0668502461
  H        23.7251667468       17.6865087412        1.2455757491
  H        35.1439275409       15.4646624754        3.9693896306
  H        37.2652046790       15.4303038420        2.6564026651
  H        38.6970315912       18.8071220685        4.9041779301
  H        36.5692207928       18.8219149136        6.2207286945
  H        37.2287297189       17.4055913487        1.2435771694
  H        20.3616570786       17.9862134587        4.6702518449
  H        35.2071014340       15.4559173499       12.0729381951
  H        37.3428224946       15.4071499514       13.3683474874
  H        38.7328890621       18.8427901032       11.1852688964
  H        36.5927784440       18.8709963847        9.8865433938
  H        37.2477342665       17.4084744971       14.7898040500
  H        35.1627910473       26.6820454589       11.4055789662
  H        28.5048797169       21.0736685003        7.9622425489
  H        25.7426194053       19.6458439545       12.1395920747
  H        23.5601423063       19.6998852785       13.3576207305
  H        22.3042677164       16.1701152963       11.2463181866
  H        24.4883452835       16.1363256956       10.0258172779
  H        23.7020809563       17.6696662194       14.7949234205
  H        29.0139729430       21.7161124415        9.7552734166
  H        29.1679423292       21.7360369118        6.6258057284
  H        32.0866242968       18.5410184087       10.9853787203
  H        27.3936067685       19.0595596209        8.0706349747
  H        14.8480284285       19.6487594957       12.1396924098
  H        17.0099640703       19.6955306128       13.3837076210
  H        18.3014135972       16.1866761882       11.2581355201
  H        16.1356161659       16.1557032709       10.0134274907
  H        16.9210682647       17.7023193883       14.8516033907
  H        46.0948477803       15.4555053674       12.0798795080
  H        43.9721062894       15.4132368458       13.3932836465
  H        42.5648229654       18.8403237835       11.2069745058
  H        44.6877233090       18.8573315089        9.8838331515
  H        44.0312882223       17.3614298063       14.8448241344
  H        20.2880650928       17.9190457096       11.4223966292
  H        46.0384924715       15.3914114783        4.0316446443
  H        43.9060211500       15.3371792343        2.7371006318
  H        42.5192784371       18.7929833752        4.8898364510
  H        44.6587093605       18.8342088645        6.1840703868
  H        44.0121460835       17.3338055172        1.2948817873
  H        46.1996897067       26.6828412854        4.6234055926
  H        52.7412188380       21.0625912527        8.1946978873
  H        14.8790776432       19.6784422916        3.9002989727
  H        17.0800334656       19.7562724511        2.7215260109
  H        18.3401469925       16.2386951969        4.8508202827
  H        16.1412097910       16.1846142762        6.0392650766
  H        16.9436167952       17.7210827657        1.2988440833
  H        52.3225328963       21.6733271262        6.2942552240
  H        52.0131572304       21.7020010741        9.4955989967
  H        49.0678769951       18.6076235205        5.2039193234
  H        13.2478129630       19.0160668956        7.9775039774
  H        29.9650159857       12.4357972552       12.2060798569
  H        28.9017518365       10.5032573642       13.3815574404
  H        25.2466334928       11.2111924078       11.2294938559
  H        26.3282222605       13.1332984907       10.0491788737
  H        27.1987141011       11.6573390581       14.7911511761
  H        30.9949638658       22.7814674315       12.0066806873
  H        32.0015477363       24.6632992106       13.3025919520
  H        35.7032611923       24.1282267184       11.1787613396
  H        34.6744805820       22.2559082842        9.8758911564
  H        33.6604855971       23.5852539878       14.7553594433
  H        25.7081823196        8.5925671273       11.4060371629
  H        30.8921537381       22.6932608635        3.9327403023
  H        31.9055185390       24.5656250928        2.6326980526
  H        35.5507776387       24.1367978297        4.8756053621
  H        34.5201187455       22.2683054434        6.1759705530
  H        33.6103815641       23.5735244063        1.2080285884
  H        40.5915462039       17.0859722966        4.6612104017
  H        32.5055743235       14.1489413848        8.2537795805
  H        29.9159874519       12.5369095589        3.9122947458
  H        28.8978851241       10.6268696791        2.6651291397
  H        25.2370355327       11.1585530021        4.8592801690
  H        26.2784494464       13.0507662038        6.1172955563
  H        27.2024086284       11.6702128247        1.2407998328
  H        33.3107105926       14.2336035991        6.4699395309
  H        33.4088966344       14.4139919527        9.5946462359
  H        32.0935041945       18.4974537058        5.1545419145
  H        30.2262012420       14.1924866697        8.0687817853
  H        16.1182462653        2.9634971745       12.1294441697
  H        14.9532139411        4.8206568573       13.3221959490
  H        17.3671645680        7.6860121533       11.2106406664
  H        18.5157842877        5.8184895649       10.0108876956
  H        16.7539004501        5.7397440083       14.7715695989
  H        44.8275465986       32.1403187616       11.9774997576
  H        45.9368466955       30.3414835212       13.3069146843
  H        43.6832374601       27.3781274968       11.1517458544
  H        42.6005202330       29.1900381513        9.8090793210
  H        44.2302822470       29.4367228109       14.7689945851
  H        14.8517722729        8.5465382730       11.3633505884
  H        44.8995406882       32.2341769190        3.9314381811
  H        46.0244593471       30.4131718204        2.6519546768
  H        43.7644592504       27.4841266304        4.8461985897
  H        42.6465901745       29.3178732990        6.1252375290
  H        44.2685061698       29.4705244014        1.2182650362
  H        35.0104228945       26.6268711757        4.6463224544
  H        36.6053588214       35.1340899534        8.1806566165
  H        16.1434985657        3.0130416495        3.9043738780
  H        14.9739892733        4.8564464913        2.6886248791
  H        17.3967283086        7.7472591327        4.7547815597
  H        18.5437725698        5.8934094634        5.9823414533
  H        16.7649041336        5.7556240835        1.2193165515
  H        36.2790101816       34.4822407499        6.2730932355
  H        36.3814258012       34.2088679237        9.4993529480
  H        40.5796298713       33.2023290601        5.1536384480
  H        17.4712020008        1.9475596683        7.9740820008
  H        29.0339268471       19.3133191151       12.4788145569
  H        29.5760164768       19.4611149503        3.5135946477
  H        31.8452541929       15.7819308427        3.4944460487
  H        31.3614888924       15.6635200469       12.5202459038
  H        28.3271860517       17.8108759993       14.7514781833
  H        29.7524731239       15.4864269764       14.6674242442
  H        31.6840853476       19.8642086832        1.6091989700
  H        33.0018515975       17.6526449039        1.3861737678
  H        32.6203070594       18.8186909901       15.2302174360
  H        18.8533700910        0.8688985128       12.3351747067
  H        40.5282143849       35.2288475723        3.9519779882
  H        42.3245881698       34.4194062675        3.5899751773
  H        22.0873617488        0.6921233524       12.3514725066
  H        11.5969111132       18.7129699792       12.3825327297
  H        52.2649560979       18.4311941069        3.6772134827
  H        49.2550846002       16.4768500884        3.5845882744
  H        10.1505242420       15.7982019085       12.2927152145
  H        50.8501466217       17.6924776610        3.9542020207
  H        10.0463384011       17.3945332724       12.0519462239
  H        20.2148009755        0.0021644759       12.0418881706
  H        39.1839007317       36.1245190529        3.6865361902
 Ni        31.1145188186       17.8678484975        2.8327156195
 Ni        31.4102485710       16.6179274195       -0.0765280504
 Ni        30.1802104172       18.7512187256        0.0023153990
 Ni        30.1818821225       17.4711703917       13.2367235172
  O        10.6499248005       14.3650632498        5.4858426887
  O        12.6131676751       14.6575196951        6.5838859477
  O        49.1480819259       16.8458549295        7.9897155914
  O        50.3503073699       20.9358153969        5.6479891140
  O        48.3485835849       20.5933583885        6.6658861121
  O        11.0518294181       17.0537397263        6.5006984013
  O        50.3210129019       20.8817081176       10.4068955639
  O        48.3467506184       20.5868053333        9.3271205754
  O        49.5438624292       18.2483934832       10.0682438911
  O        12.3592073139       18.6245855621        7.9996764482
  O        48.6932699978       14.1485839525        6.7513090515
  O         8.2099336159       14.2103771599        9.3225104931
  O        10.7353974454       14.5067354712       10.6643000913
  O        12.5718611254       14.5828018159        9.3285007472
  O        22.8445999966        2.0426491076        5.4872784023
  O        21.6064575678        3.5927456022        6.5887498465
  O        42.0581494030       34.1374195811        7.9788756519
  O        37.9811718694       33.1362470741        5.5722735434
  O        39.2173375843       31.5750059271        6.6658756730
  O        20.3084432471        1.0396265911        6.5021843529
  O        38.0243557678       33.1849715308       10.4157149443
  O        39.2185686112       31.5830681710        9.3272304202
  O        40.6522417624       33.7693041812       10.0600912508
  O        18.2557453680        1.3761899408        7.9967393274
  O        44.6222337477       35.1005302098        6.7587995063
  O        24.2054121809        0.0000056544        9.3207457048
  O        22.7529318227        2.0573683150       10.5837389389
  O        21.6247314278        3.5962781342        9.3432118930
  O        27.5037538234       18.7541611730        5.4936372268
  O        26.7653002262       16.9365472086        6.6505060525
  O        30.6453563590       19.3513181275        8.0558858538
  O        33.5854075110       16.2745081116        5.6652267411
  O        34.2745508860       18.1669631822        6.7348016998
  O        29.5769953510       17.0550650197        6.5764156532
  O        33.6105316243       16.3272566697       10.4137018700
  O        34.3043716293       18.2442539477        9.4062570708
  O        31.6540859216       18.3156766886       10.1446615845
  O        30.3236125250       15.1587631005        8.0815900581
  O        28.5546365732       21.0298411079        6.8966111551
  O        28.5137409289       20.9558356918        9.4127803950
  O        27.4557433787       18.6791614976       10.6580923754
  O        26.6935124482       16.9282284130        9.4130630067
  O        13.1485168587       18.6929648069       10.5873862178
  O        13.9194177872       16.9162712567        9.4051660591
  O        50.5964331457       19.3502611793        8.0203791424
  O        47.6837188648       16.3269405135       10.4172918611
  O        46.9523391472       18.1760063443        9.3241840095
  O        11.0699742272       17.0154166347        9.4896012605
  O        47.6758307560       16.3356479094        5.6529612582
  O        46.9276426574       18.2358902225        6.6648656623
  O        49.5688536515       18.3176726503        5.9822688983
  O        10.3187066911       15.1000923061        7.9970660919
  O        52.6707678015       21.0278960922        9.2418177350
  O        12.1468496236       20.8912303966        6.6732495939
  O        13.1081352399       18.6136630039        5.3256438132
  O        13.9574923058       16.9871890393        6.6652103424
  O        29.9955226000       14.4425618721       10.7282769541
  O        28.0895308238       14.6533357574        9.4948560457
  O        32.1360584382       16.8508700090        8.0721796352
  O        30.9644586762       20.9511523869       10.4077981243
  O        32.9451149394       20.6020118438        9.3359183117
  O        29.5648102225       17.0724188699        9.5720961812
  O        30.8499522017       20.8883258653        5.6593628622
  O        32.8692461012       20.5860792625        6.6649152554
  O        31.6856900965       18.2477814282        6.0023797183
  O        28.2829845750       18.6701336077        8.0732895308
  O        32.4921086764       14.2136777921        9.3291943207
  O        32.4042853083       14.2182014428        6.8206875419
  O        29.9283053305       14.4459111460        5.4890957208
  O        28.0432262360       14.5877019502        6.7489380554
  O        17.8892802646        1.9666089812       10.6627715949
  O        18.9562839158        3.5271058450        9.4079068083
  O        39.1684980597       34.1386224373        7.9971071965
  O        43.2801989344       33.0589330709       10.3317389455
  O        42.0343934010       31.5064545259        9.2416060592
  O        20.3176888288        1.0369066918        9.4799204573
  O        43.2760893969       33.1826048404        5.5748757108
  O        42.0052188435       31.5841495319        6.5829843695
  O        40.5788983881       33.7749576365        5.9357882772
  O        22.3674218022        1.3847730554        7.9979106670
  O        36.6728311730       35.0997203892        9.2333080600
  O        16.4456987219        0.0641995648        6.6682436893
  O        17.9365479306        2.0433571322        5.3264093377
  O        18.9191692696        3.5931100890        6.6659394925
  O        29.9487199839       18.7529853923        4.0686578393
  O        29.7841073101       18.9044611587       12.0073185256
  O        31.3067184098       16.4085720203        4.0106821071
  O        31.2687417793       16.4835451843       11.9976615274
  O        32.3057731591       16.9991081726        1.5809246072
  O        30.5480226122       15.9790910728       14.4043935677
  O        31.8260586795       18.3150515632       14.9827973711
  O        30.8664379544       19.3397440218        1.6608893159
  O        29.0672943577       18.3937975578       14.5060157298
  O        39.4568551053       35.2437912834        4.0020228124
  O        19.1412635796        0.0043874713       11.9904978862
  O        41.9694806605       35.1726135512        4.0870722459
  O        21.6910938051       -0.0694142629       11.8958460167
  O        51.3651351907       18.6143132027        4.0053975131
  O        10.7511215068       18.7472034870       11.9049521139
  O        50.0795471960       16.4128102830        4.0917985677
  O         9.5246200151       16.4830497598       11.9912352128
 Zr         9.2974488865       16.0526275886        6.1825242554
 Zr        49.8369699819       16.0065334567        9.7463528053
 Zr        22.0736289202        0.0306260110        6.1887061280
 Zr        42.4611516022       35.1541200445        9.8009905497
 Zr        29.6051021011       19.0703320234        6.2692959370
 Zr        29.5726406143       19.1672459153        9.8594549435
 Zr        11.0385767330       19.0517634508        9.8277390550
 Zr        11.0445775918       19.1546469427        6.2508814692
 Zr        31.3451771036       16.1074857806        9.8628670924
 Zr        31.3876229456       16.0192292447        6.2626225736
 Zr        18.6015314301       -0.0007797690        9.7632681969
 Zr        18.5069449386       -0.0071703733        6.2137024611
 Zr        12.3028706891       16.3235289395        7.9902365535
 Zr        48.6173939108       18.8331575544        8.0101547718
 Zr        20.3160949796        2.4746198374        7.9903459947
 Zr        40.6437794165       32.6876697870        7.9780419160
 Zr        28.3396748428       16.3341021855        8.0815073411
 Zr        32.6277016238       18.8310635191        8.0547247120
  H        30.8802441424       15.4680891194        0.6282570038
