     566
 i =      126, E =     -4712.2511303160
  C        11.8588749514       14.0535585870        5.7415809205
  C        12.4563507743       12.8905806280        5.0234649141
  C        11.7046585522       12.1717319750        4.0817141603
  C        12.2810193766       11.1095515933        3.3893329598
  C        13.6215757374       10.7396655356        3.6171016022
  C        14.3546991714       11.4431120185        4.5907064231
  C        13.7818501416       12.5080871142        5.2822580052
  C        14.2611224718        9.6490538175        2.8436340726
  C        14.2563841053        9.6569893780        1.4219278179
  C        13.7431706652       10.7590903907        0.6680225138
  C        49.1269984990       21.2330095151        5.8796855787
  C        48.5503724248       22.4010315521        5.1526271023
  C        49.3003094615       23.0681754202        4.1714346815
  C        48.7334097330       24.1073702000        3.4382746985
  C        47.4029864793       24.5093019727        3.6671173487
  C        46.6721633806       23.8606301543        4.6808639645
  C        47.2345738683       22.8156845052        5.4101825198
  C        46.7727132692       25.5870054781        2.8698589212
  C        46.7615961914       25.5573698113        1.4480901494
  C        47.2614358852       24.4422582296        0.7045571625
  C        14.8604096406        8.5707183328        0.7086303684
  C        14.8919967342        8.5971311081        3.5202491306
  C        49.1132280120       21.2034452473       10.1453661181
  C        48.5278812911       22.3648029241       10.8725179469
  C        49.2670914355       23.0255003186       11.8654705418
  C        48.6907667844       24.0600609055       12.5969288862
  C        47.3603735742       24.4569055864       12.3586656832
  C        46.6399969953       23.8120290882       11.3350924878
  C        47.2135318987       22.7761116264       10.6033093597
  C        46.7219137519       25.5318594085       13.1497177719
  C        46.7336682878       25.5281883519       14.5714262883
  C        47.2491008979       24.4289637482       15.3277943802
  C        40.6198206040       17.0902133302       15.3100893832
  C        40.6281599515       17.0998023006       12.5004702258
  C        11.8830541054       14.0866303195       10.2853794937
  C        12.4724174989       12.9108522845       10.9895545858
  C        11.7150625279       12.1779180989       11.9160214055
  C        12.2816615165       11.0954874838       12.5844527462
  C        13.6203603621       10.7214616730       12.3523424450
  C        14.3581138262       11.4366811936       11.3910895786
  C        13.7926700714       12.5178108009       10.7183492946
  C        14.2539968664        9.6247638092       13.1227938267
  C        14.2526320438        9.6447196911       14.5446453238
  C        13.7426808622       10.7536079754       15.2917640480
  C        22.5122309158        3.2449973214        5.7542521406
  C        23.2262207636        4.3522937913        5.0578826107
  C        24.2255089774        4.0770440915        4.1127403851
  C        24.8497612758        5.1199824216        3.4331870944
  C        24.4901290767        6.4601205430        3.6785579991
  C        23.5198619158        6.7268727749        4.6615531054
  C        22.8912111192        5.6859807410        5.3396017008
  C        25.0883112804        7.5706391462        2.9029654501
  C        25.0551806763        7.5648106768        1.4816350673
  C        24.3574787753        6.5612275516        0.7371876175
  C        38.2972556580       31.9272210556        5.8518618106
  C        37.5538127108       30.8375447478        5.1517587904
  C        36.5866265080       31.1433719753        4.1815651227
  C        35.9546629216       30.1250811461        3.4722572261
  C        36.2737445141       28.7732494782        3.7087507884
  C        37.2100552019       28.4748713716        4.7170277436
  C        37.8458857199       29.4922043807        5.4259181210
  C        35.6641594981       27.6844691014        2.9081783773
  C        35.7080590568       27.6995522310        1.4860420120
  C        36.4208631385       28.7017483087        0.7547382683
  C        25.6673469431        8.6401610149        0.7608827078
  C        25.6814812260        8.6479910532        3.5729286198
  C        38.3309669276       31.9607560434       10.1607509342
  C        37.6155893804       30.8874746676       10.9114382954
  C        36.6824196615       31.1968207652       11.9130949735
  C        36.0734138866       30.1798179122       12.6465649856
  C        36.3824481722       28.8263964549       12.4028949682
  C        37.2970866745       28.5269377462       11.3743142669
  C        37.9077884897       29.5404541728       10.6419182748
  C        35.7674489447       27.7272642158       13.1839478697
  C        35.7607185113       27.7217283217       14.6066901145
  C        36.4444942545       28.7133662020       15.3780253548
  C        46.1356837259       26.6208191286       15.2815976178
  C        46.0879091884       26.5802168373       12.4736973542
  C        22.4597218094        3.2568528650       10.2595871664
  C        23.1492484555        4.3668696789       10.9853148029
  C        24.1465021087        4.0839369188       11.9323674200
  C        24.7692580431        5.1160096710       12.6306145627
  C        24.4155956038        6.4615278860       12.4046345029
  C        23.4415398952        6.7375018080       11.4261073362
  C        22.8138796842        5.7058294368       10.7287069368
  C        25.0409348360        7.5630741953       13.1793216322
  C        25.0308255898        7.5604348281       14.6024383139
  C        24.3433301869        6.5605738974       15.3603273062
  C        26.6818676875       17.8794537515        5.7301337859
  C        25.3811802902       17.9683810262        4.9995703449
  C        25.1402747502       18.9499779022        4.0254829112
  C        23.9118691367       18.9996565949        3.3652691638
  C        22.8901526020       18.0693730240        3.6508991408
  C        23.1311439886       17.1115649121        4.6542597864
  C        24.3558644253       17.0592716656        5.3149499357
  C        21.6070319988       18.0584293469        2.9011083862
  C        21.5966923267       18.0077703443        1.4790840184
  C        22.7966587962       17.8609283873        0.7138015321
  C        34.4436080525       17.1968451856        5.9207670386
  C        35.7369662710       17.1499933234        5.1808620481
  C        35.9536324298       16.1665293608        4.2020272562
  C        37.1319767772       16.1567333516        3.4619511122
  C        38.1286457714       17.1273194467        3.6813042340
  C        37.9171315850       18.0900567834        4.6868067654
  C        36.7346642811       18.1067976290        5.4233944225
  C        39.3805282902       17.1337596290        2.8903188114
  C        39.3704343941       17.1279379750        1.4682982404
  C        38.1600969408       17.2359055596        0.7138859477
  C        20.3452847290       18.0110126711        0.7784920895
  C        20.3846683183       18.0633814853        3.5912860227
  C        34.4396708712       17.2326265361       10.1909463128
  C        35.7389104031       17.1352834343       10.9134792095
  C        35.9391244937       16.1598333076       11.9018710099
  C        37.1299847926       16.1271320734       12.6231793299
  C        38.1483470357       17.0692036965       12.3774318842
  C        37.9532372317       18.0176538735       11.3557048578
  C        36.7624160420       18.0553459424       10.6368588520
  C        39.3984108778       17.0853788562       13.1694171105
  C        39.3796941867       17.1048959515       14.5910305711
  C        38.1645820962       17.2243515701       15.3369843397
  C        35.1229529179       26.6426597644       15.3049280654
  C        35.1838723444       26.6557880173       12.4951088245
  C        26.5661908403       17.8273553195       10.3250378071
  C        25.2519277261       17.8771903112       11.0300712603
  C        24.9871553780       18.8879518948       11.9671385740
  C        23.7691670807       18.9174239225       12.6405906793
  C        22.7855325468       17.9361036948       12.4026810619
  C        23.0449104449       16.9502304155       11.4329961836
  C        24.2633701657       16.9186601888       10.7568641716
  C        21.5237232642       17.9233095497       13.1800359374
  C        21.5544181260       17.9363732943       14.6015880682
  C        22.7761626119       17.8271197607       15.3382871846
  C        14.0455303576       17.8267690338       10.2928051066
  C        15.3459727036       17.8810718179       11.0268959712
  C        15.6022384374       18.8915996538       11.9670694615
  C        16.8089901674       18.9161651323       12.6639427770
  C        17.7946539270       17.9325954368       12.4441410395
  C        17.5411744247       16.9427502790       11.4754966662
  C        16.3341602336       16.9143523389       10.7792077351
  C        19.0668765189       17.9274864537       13.2093722550
  C        19.0733352670       17.9498006189       14.6321045421
  C        17.8710559465       17.8629811668       15.4021292148
  C        46.8020530582       17.2161031751       10.1568528541
  C        45.5080156857       17.1457412363       10.8968765642
  C        45.3019703391       16.1613149360       11.8760161197
  C        44.1176850130       16.1335146371       12.6080601018
  C        43.1079899479       17.0898884924       12.3839253301
  C        43.3104652220       18.0529335841       11.3767056165
  C        44.4957501391       18.0846791243       10.6454476534
  C        41.8548438446       17.0944589818       13.1747307898
  C        41.8644559974       17.1012096399       14.5970049545
  C        43.0755906122       17.2019627879       15.3514506546
  C        20.3238991184       17.9752808167       15.3333796961
  C        20.2877723737       17.8991395060       12.5206858285
  C        46.7861357498       17.2332680897        5.8863237432
  C        45.4853264864       17.1328021594        5.1654295818
  C        45.2642438855       16.1330212368        4.2060663885
  C        44.0774301973       16.1095202259        3.4775950809
  C        43.0823449250       17.0833974984        3.6904950324
  C        43.2947771575       18.0546825544        4.6866526414
  C        44.4822067991       18.0839292633        5.4109468684
  C        41.8344498230       17.1042802086        2.8960322986
  C        41.8542277871       17.1046310754        1.4747226081
  C        43.0709573381       17.2001492718        0.7284824148
  C        46.1535348620       26.6372496957        0.7263671947
  C        46.1628185315       26.6561565365        3.5360160870
  C        14.0526733552       17.8404936762        5.7128036021
  C        15.3816048529       17.9389860372        5.0340197533
  C        15.6486169071       18.9684884049        4.1181647709
  C        16.8808235842       19.0308867530        3.4695675302
  C        17.8782266734       18.0636016558        3.7084887396
  C        17.6185623352       17.0639549418        4.6644447156
  C        16.3880620786       17.0012660245        5.3174217777
  C        19.1461445309       18.0570640949        2.9335645683
  C        19.1142581060       18.0160771432        1.5113409537
  C        17.8910103278       17.8925844541        0.7782443856
  C        28.8030533859       14.0892727771       10.3936820370
  C        28.1840372614       12.9221691001       11.0835138227
  C        28.8917198258       12.2011699349       12.0568414972
  C        28.2862780043       11.1306080819       12.7095029434
  C        26.9589563030       10.7577745007       12.4142860229
  C        26.2739988845       11.4598392763       11.4062088570
  C        26.8768949991       12.5305993274       10.7515428149
  C        26.2842340624        9.6817452370       13.1750942631
  C        26.2623510809        9.7147902745       14.5961038744
  C        26.7491324579       10.8360439372       15.3403993256
  C        32.1800019268       21.2355157227       10.1466002135
  C        32.7758638809       22.4028127061       10.8635946462
  C        32.0276957633       23.0838838424       11.8366018123
  C        32.5984758760       24.1234610898       12.5648119404
  C        33.9343394314       24.5113700198       12.3432655597
  C        34.6650865621       23.8494696563       11.3381592821
  C        34.0964970434       22.8045722709       10.6112454032
  C        34.5616287151       25.5858265660       13.1482767421
  C        34.5406795221       25.5577845543       14.5704077875
  C        34.0288183431       24.4411303854       15.3036949836
  C        25.6600659336        8.6337283005       15.3159050592
  C        25.6555214569        8.6254423358       12.5024542202
  C        32.0874651224       21.1581470052        5.8336468573
  C        32.6453661950       22.3287309125        5.0981081958
  C        31.9159965715       22.9758349269        4.0880579922
  C        32.4856341923       24.0279624278        3.3727152827
  C        33.7987280359       24.4631078849        3.6444691321
  C        34.5064861239       23.8314402201        4.6858217083
  C        33.9425138084       22.7777334208        5.3984920918
  C        34.4410400160       25.5522812536        2.8707245551
  C        34.4774939439       25.5411373822        1.4482692657
  C        33.9980526955       24.4335099958        0.6802305349
  C        40.6144551880       17.0972618352        0.7551399031
  C        40.6060961439       17.1390002607        3.5656538506
  C        28.7117204816       14.0951602717        5.8196894233
  C        28.0961412241       12.9493220897        5.0904422514
  C        28.8203539457       12.2806720770        4.0908209562
  C        28.2410361959       11.2233671493        3.3943111938
  C        26.9214820528       10.8095036749        3.6684231094
  C        26.2158477880       11.4670396818        4.6942850933
  C        26.7932350734       12.5245835358        5.3947752013
  C        26.2814242782        9.7178679034        2.8954720222
  C        26.2629677738        9.7331841694        1.4730691664
  C        26.7468969012       10.8465124521        0.7165620428
  C        18.1354644419        3.1809567385       10.3172158571
  C        17.4062933444        4.2782412605       11.0159178810
  C        16.3902320685        4.0000189642       11.9431000030
  C        15.7425739015        5.0400859000       12.6065382190
  C        16.0949014727        6.3837451556       12.3671284243
  C        17.0847171472        6.6531403775       11.4037870855
  C        17.7337516308        5.6157148604       10.7387971118
  C        15.4705403437        7.4914855259       13.1301234359
  C        15.4857455731        7.4907859556       14.5518366436
  C        16.1873363651        6.4971817882       15.3049854630
  C        42.9457822591       31.8595888735       10.0728579342
  C        43.6461561056       30.7718645850       10.8168445864
  C        44.5916014256       31.0932162733       11.8029862998
  C        45.1973413423       30.0876980613       12.5506801046
  C        44.8710228360       28.7346117205       12.3358069395
  C        43.9453017001       28.4202325832       11.3225006816
  C        43.3364743903       29.4253522969       10.5744231704
  C        45.4886726207       27.6553209944       13.1389907401
  C        45.4929197587       27.6809345076       14.5606960691
  C        44.8059081699       28.6889942688       15.3073698665
  C        14.8566819555        8.5632289679       15.2641937099
  C        14.8752899364        8.5632504620       12.4515140615
  C        42.9464794699       31.9617095198        5.8089884749
  C        43.6918428591       30.8855369194        5.0956021241
  C        44.6564548440       31.1914593797        4.1233232635
  C        45.2780730890       30.1718826416        3.4056424754
  C        44.9543875901       28.8215454710        3.6432919095
  C        44.0209187853       28.5238686577        4.6540851967
  C        43.3925629118       29.5406222333        5.3662212211
  C        45.5634283696       27.7241385500        2.8580095983
  C        45.5336201719       27.7174165648        1.4367019841
  C        44.8272751231       28.7076441078        0.6837646874
  C        35.0932905001       26.6331334488        0.7505644672
  C        35.0469416101       26.6107973357        3.5612400276
  C        18.1486786178        3.2470312915        5.7065859655
  C        17.4301970713        4.3438860056        4.9971992879
  C        16.4147416965        4.0526853390        4.0738794315
  C        15.7664719204        5.0833558703        3.3985079474
  C        16.1214350466        6.4285438509        3.6210133801
  C        17.1131660362        6.7118694955        4.5779104629
  C        17.7607984887        5.6829149290        5.2576630427
  C        15.4908631948        7.5242524880        2.8486224656
  C        15.4967144293        7.5076502668        1.4274911099
  C        16.1935390058        6.5059902117        0.6807980581
  H        10.6725471088       12.4658862176        3.9046441798
  H        11.6947313195       10.5511301638        2.6627478361
  H        15.3917193711       11.1684852254        4.7724696790
  H        14.3513715985       13.0712768585        6.0176764745
  H        13.3760981791       11.6311901041        1.2013308307
  H        50.3229238061       22.7479545148        3.9864865373
  H        49.3198511732       24.6224844073        2.6805602672
  H        45.6427843340       24.1616411594        4.8642716086
  H        46.6636390398       22.2906657773        6.1724870772
  H        47.6299515415       23.5758461086        1.2461994866
  H        14.8724432655        8.5883738506        4.6085570812
  H        50.2871210886       22.7026269477       12.0604258033
  H        49.2691590261       24.5754983579       13.3604442582
  H        45.6106140473       24.1093135325       11.1459877554
  H        46.6526837573       22.2539729346        9.8317500730
  H        47.6078116635       23.5518206471       14.7968906192
  H        40.6308110419       17.0627020290       11.4127386887
  H        48.6871309509       14.0949377007        7.8000594437
  H        10.6816740020       12.4671346756       12.0936583837
  H        11.6899432881       10.5252704261       13.2973503220
  H        15.3934173347       11.1585327795       11.2048206906
  H        14.3648711405       13.0868219325        9.9894256320
  H        13.3758527185       11.6222484196       14.7531744702
  H        47.9301883145       14.2186039211        9.7108453288
  H        47.7799365544       14.3733273399        6.4953343321
  H        49.0830943782       18.5518203792       10.8671216965
  H        10.4164105213       14.1343735124        7.9987334099
  H        24.4903608790        3.0396917780        3.9204995121
  H        25.6243827154        4.9065932889        2.6997946504
  H        23.2351519160        7.7585753189        4.8572999232
  H        22.1195588841        5.8824529947        6.0798753702
  H        23.8021992872        5.8010299279        1.2788003292
  H        36.3547335230       32.1873619874        3.9842585908
  H        35.2062823416       30.3689154932        2.7213324509
  H        37.4658832865       27.4348810706        4.9092113861
  H        38.5941095983       29.2665617077        6.1822088065
  H        36.9800045700       29.4522586470        1.3058094797
  H        25.7230702704        8.6276232409        4.6604595523
  H        36.4533773005       32.2410485218       12.1136239717
  H        35.3429318918       30.4272057877       13.4136924118
  H        37.5501337044       27.4868568003       11.1794037549
  H        38.6343474651       29.3124569703        9.8657733578
  H        37.0226889471       29.4725126394       14.8589535075
  H        46.1093143747       26.5876492830       11.3856618550
  H        44.6684261313       35.1162989031        7.8139297486
  H        24.4248843519        3.0464228771       12.1029882581
  H        25.5464610453        4.8886536544       13.3571353798
  H        23.1564643818        7.7713375254       11.2419174967
  H        22.0461392005        5.9171680471        9.9879639086
  H        23.7764081265        5.8005989129       14.8304628197
  H        44.9543913435       34.3910162645        9.6956353626
  H        44.9021770356       34.2069957441        6.4906031263
  H        40.6665771307       33.2093228300       10.8532569169
  H        23.1502527525        1.9583208753        8.0060157433
  H        25.9239879300       19.6693827890        3.7981687455
  H        23.7315492860       19.7688476512        2.6173096444
  H        22.3580911179       16.3814840120        4.8851267970
  H        24.5475482027       16.3055575879        6.0745466371
  H        23.7402111471       17.7417467949        1.2381915043
  H        35.1850738936       15.4172619315        4.0279781045
  H        37.2957600034       15.3880246393        2.7099098136
  H        38.6787527043       18.8473362601        4.8610719686
  H        36.5557087589       18.8654933157        6.1818032346
  H        37.2211904163       17.3598466055        1.2460067395
  H        20.3979955695       18.1172267402        4.6785972702
  H        35.1437084477       15.4462994472       12.1046701696
  H        37.2827114050       15.3677059748       13.3868660819
  H        38.7322012805       18.7517139107       11.1604677207
  H        36.5927011798       18.8066279443        9.8695126332
  H        37.2288724180       17.3399273260       14.7976339601
  H        35.1671491054       26.6820787837       11.4071811797
  H        28.5120618798       21.0910945023        8.0037033165
  H        25.7477333535       19.6438050610       12.1495345203
  H        23.5648098447       19.7056828329       13.3619191286
  H        22.2952666272       16.1848002007       11.2428287431
  H        24.4782315617       16.1446319213       10.0239197104
  H        23.7037988588       17.6832451837       14.7925277729
  H        29.0241631185       21.7099660749        9.7567392662
  H        29.0893316944       21.7826050312        6.6041809178
  H        32.0767217058       18.5308103306       11.0025513134
  H        27.4021190083       19.0838650106        8.0818766804
  H        14.8458771345       19.6550706399       12.1349132981
  H        17.0039985703       19.7082898863       13.3837131424
  H        18.2902844463       16.1739293442       11.2973259241
  H        16.1291052914       16.1382988407       10.0455131030
  H        16.9254539580       17.7386539972       14.8823221748
  H        46.0874988510       15.4315396410       12.0575682541
  H        43.9605642610       15.3628369527       13.3595536003
  H        42.5395575525       18.7996770395       11.1979470460
  H        44.6671447450       18.8433777757        9.8853371768
  H        44.0156164978       17.3122959323       14.8184203423
  H        20.2750281591       17.9121716296       11.4322598462
  H        46.0376009753       15.3879557551        4.0335875820
  H        43.9081599282       15.3324642011        2.7353490223
  H        42.5320162859       18.8115538303        4.8572658635
  H        44.6669135426       18.8519268425        6.1580043934
  H        44.0075113759       17.3080261493        1.2679507429
  H        46.1997791294       26.6827540835        4.6234569764
  H        52.7410115290       21.0626534031        8.1946736384
  H        14.8791725988       19.7138519208        3.9290851171
  H        17.0815052263       19.8319602799        2.7612367765
  H        18.3774981235       16.3089960126        4.8596156266
  H        16.1766717290       16.2147625563        6.0380537708
  H        16.9605309145       17.7909119481        1.3286933813
  H        52.3218241055       21.6730004938        6.2945078724
  H        52.0130350981       21.7017503269        9.4958129262
  H        49.0684648881       18.6077238633        5.2039999556
  H        13.2476749753       19.0168696794        7.9790346612
  H        29.9125059814       12.4959569204       12.2896324146
  H        28.8366738233       10.5703212641       13.4621500497
  H        25.2486199942       11.1822396301       11.1707557600
  H        26.3448666922       13.0941085051        9.9890687074
  H        27.0995409456       11.7096944113       14.7992387651
  H        31.0024440258       22.7718846004       12.0198609263
  H        32.0118732368       24.6484161054       13.3155622007
  H        35.6991343194       24.1377149572       11.1601936168
  H        34.6686696557       22.2688121476        9.8573037525
  H        33.6847342735       23.5690297119       14.7549880218
  H        25.6920460993        8.6015755556       11.4147304780
  H        30.9068130353       22.6362919411        3.8662078314
  H        31.9116800126       24.5281818531        2.5957442865
  H        35.5221220141       24.1541340773        4.9052421159
  H        34.4980837133       22.2713533646        6.1840640000
  H        33.6310589303       23.5543534243        1.2019941843
  H        40.6031577320       17.1139297200        4.6537005828
  H        32.5130555899       14.1449306167        8.2508234949
  H        29.8351180643       12.6086548337        3.8757012707
  H        28.8109420595       10.7010454361        2.6290035764
  H        25.1950278597       11.1609309450        4.9136850898
  H        26.2430033958       13.0473798825        6.1735614770
  H        27.0933642724       11.7288141112        1.2468335410
  H        33.2925079964       14.1771218269        6.4352296053
  H        33.4061883248       14.3937095854        9.6079253552
  H        32.0854369974       18.5274988843        5.1188114737
  H        30.1812099443       14.1513075985        8.0883940141
  H        16.1178554869        2.9635586658       12.1292822583
  H        14.9528653319        4.8208258618       13.3219500513
  H        17.3676063561        7.6859498749       11.2109974709
  H        18.5161755423        5.8182749391       10.0113392314
  H        16.7539858845        5.7399247082       14.7714646440
  H        44.8278410757       32.1403088075       11.9771867513
  H        45.9371842526       30.3415326081       13.3066219050
  H        43.6827377985       27.3781421449       11.1523092635
  H        42.6000295727       29.1899839814        9.8096002540
  H        44.2305980311       29.4368188899       14.7690976393
  H        14.8516259581        8.5464907096       11.3632914784
  H        44.8999754233       32.2341452901        3.9318547844
  H        46.0250013613       30.4131800787        2.6524467954
  H        43.7640638050       27.4841255604        4.8457201579
  H        42.6461065978       29.3178038890        6.1247035841
  H        44.2688862093       29.4706021152        1.2183717367
  H        34.9939961803       26.6233017746        4.6483419429
  H        36.6053814250       35.1339598424        8.1806647377
  H        16.1434409548        3.0131368674        3.9043406370
  H        14.9739597155        4.8565918157        2.6886068701
  H        17.3970534798        7.7472855489        4.7544888779
  H        18.5439936556        5.8933314196        5.9820924694
  H        16.7650584724        5.7558225613        1.2192487780
  H        36.2791131855       34.4821367522        6.2730150452
  H        36.3813766703       34.2088122151        9.4994449628
  H        40.5793511648       33.2021606140        5.1540402823
  H        17.4710841515        1.9471640444        7.9741184710
  H        29.1086052679       19.3536515524       12.6113198952
  H        32.4170423143       16.0896615740        3.8422039239
  H        31.1837745096       15.5686270851       12.4723847654
  H        27.8600314868       17.6659470063       14.2383905419
  H        29.3360194870       15.3607039315       14.4490815613
  H        32.5953131408       17.3303968941        1.1315644852
  H        18.8535724369        0.8688681935       12.3352762826
  H        40.5282180524       35.2288648301        3.9520236254
  H        42.3246247582       34.4195110214        3.5901338560
  H        22.0876591971        0.6924867316       12.3513325458
  H        11.5969433867       18.7128949930       12.3822702790
  H        52.2649156796       18.4308426185        3.6769328719
  H        49.2552344147       16.4766086721        3.5845602929
  H        10.1493103786       15.7982222519       12.2933693407
  H        50.8500462530       17.6923154664        3.9542899482
  H        10.0457461319       17.3945202960       12.0520403150
  H        20.2150668934        0.0022916465       12.0419149486
  H        39.1838970766       36.1244999036        3.6865129899
 Ni        30.6458657454       16.9215761349        2.5759670023
 Ni        31.1133685716       16.2507059244       -0.2478166439
 Ni        29.4196527903       17.8202873082        0.1691570539
 Ni        29.9716685538       17.3019432743       13.1581352830
  O        10.6500761754       14.3651318109        5.4859098987
  O        12.6133403889       14.6577399066        6.5839168328
  O        49.1478876371       16.8458963070        7.9897993482
  O        50.3504056315       20.9354535018        5.6479842651
  O        48.3486133565       20.5932321167        6.6659278564
  O        11.0519461131       17.0535895541        6.5008553724
  O        50.3210468041       20.8816397063       10.4068028887
  O        48.3467406491       20.5867305868        9.3271441155
  O        49.5437176889       18.2483396215       10.0681659237
  O        12.3594762660       18.6243846177        7.9995153895
  O        48.6932531007       14.1486295912        6.7513198064
  O         8.2099105729       14.2104766113        9.3225373868
  O        10.7354285891       14.5068006653       10.6642831220
  O        12.5718956244       14.5830212980        9.3283758534
  O        22.8446664790        2.0438509195        5.4872358661
  O        21.6049321111        3.5918740482        6.5904959890
  O        42.0580682823       34.1373612641        7.9789606809
  O        37.9813514140       33.1360822862        5.5719177658
  O        39.2169772784       31.5748684864        6.6653595238
  O        20.3084237581        1.0395382165        6.5021711100
  O        38.0242463225       33.1847075141       10.4158256733
  O        39.2184126136       31.5829598794        9.3273995435
  O        40.6522089592       33.7692543696       10.0601177809
  O        18.2557005453        1.3758944306        7.9967953354
  O        44.6222030101       35.1005780176        6.7587722047
  O        24.2053643208        0.0000556043        9.3207686580
  O        22.7530558196        2.0585220200       10.5843408468
  O        21.6244894738        3.5961651829        9.3429991674
  O        27.6360230283       18.6900806151        5.4115418012
  O        26.7399535076       17.0049329570        6.6585407124
  O        30.6618484129       19.4085276160        8.0832026500
  O        33.5901890979       16.2789818588        5.6673711981
  O        34.2679248459       18.1706005274        6.7367202451
  O        29.5707510084       17.0614023288        6.5804691662
  O        33.5538924344       16.3382423955       10.4131736973
  O        34.3001632840       18.2378009709        9.4073614842
  O        31.6476605933       18.3138030389       10.1570211509
  O        30.2913931264       15.1157569796        8.0848058246
  O        28.5524488893       21.0327586554        6.9139841009
  O        28.5173749327       20.9543281471        9.4116441261
  O        27.4551760761       18.6792496657       10.6601370597
  O        26.6923037246       16.9298815588        9.4145109811
  O        13.1484436160       18.6930120988       10.5876793895
  O        13.9203338861       16.9165061771        9.4061929929
  O        50.5962180240       19.3500882846        8.0202093232
  O        47.6825842464       16.3271014275       10.4173246418
  O        46.9503459114       18.1756363892        9.3255851886
  O        11.0703018812       17.0151599228        9.4894246373
  O        47.6756623153       16.3358974689        5.6527742982
  O        46.9271743389       18.2359872030        6.6643820474
  O        49.5692497057       18.3176144255        5.9824319717
  O        10.3189213880       15.1002180455        7.9970598325
  O        52.6707739231       21.0278139631        9.2418288241
  O        12.1468569967       20.8911523143        6.6732411043
  O        13.1098480254       18.6141110159        5.3253701619
  O        13.9604358157       16.9885299524        6.6629038231
  O        29.9889784272       14.4360276735       10.7264177762
  O        28.0855154144       14.6548627037        9.4951691019
  O        32.0746886828       16.8674796370        8.0669417246
  O        30.9638013519       20.9486595703       10.4112763472
  O        32.9448606778       20.5970692805        9.3368679832
  O        29.5602956438       17.0800210452        9.5707082969
  O        30.8704027371       20.8020614147        5.5728172867
  O        32.8612606418       20.5799803291        6.6628604425
  O        31.6029837010       18.2456482932        5.9135267441
  O        28.2861950626       18.6808863352        8.0871226817
  O        32.4905501842       14.2122513400        9.3281687993
  O        32.4051096690       14.2122870971        6.8287992072
  O        29.8953191674       14.4381770669        5.4962743739
  O        28.0014788671       14.6489749534        6.7389023339
  O        17.8892033465        1.9665584963       10.6628182408
  O        18.9561850463        3.5271075538        9.4079925251
  O        39.1685368243       34.1385869611        7.9971166801
  O        43.2801623763       33.0589397909       10.3317099363
  O        42.0343689379       31.5064713727        9.2415906910
  O        20.3176455100        1.0366878650        9.4802553808
  O        43.2760900223       33.1826120637        5.5748964089
  O        42.0052205421       31.5841178106        6.5829625289
  O        40.5790955598       33.7751427755        5.9359443393
  O        22.3674138937        1.3846866771        7.9980233497
  O        36.6728111250       35.0996578240        9.2333360145
  O        16.4457239437        0.0641348715        6.6682262109
  O        17.9364818295        2.0433834019        5.3263646445
  O        18.9189799437        3.5931421664        6.6659736242
  O        29.7855356947       18.8988619036       12.0741462611
  O        31.4776305045       16.1067895406        4.0994601458
  O        31.2266563948       16.4220861425       11.9925505639
  O        32.1212443876       16.4873899475        1.2620225136
  O        30.2126280369       15.6866668911       14.1715680613
  O        28.7202499269       18.0936757721       14.4014505964
  O        39.4568639384       35.2437751626        4.0019780771
  O        19.1415549788        0.0044324190       11.9905078566
  O        41.9695084363       35.1727465115        4.0871918410
  O        21.6913505738       -0.0691617050       11.8959291504
  O        51.3652905569       18.6141898481        4.0054848761
  O        10.7510685766       18.7471351574       11.9048522117
  O        50.0797031867       16.4128529167        4.0918353389
  O         9.5238741659       16.4831780629       11.9911859059
 Zr         9.2969799541       16.0525808692        6.1825584285
 Zr        49.8365957294       16.0066392559        9.7464318036
 Zr        22.0735764129        0.0304934038        6.1888398498
 Zr        42.4612054153       35.1540214842        9.8010294289
 Zr        29.6225981679       19.1028951166        6.4018319364
 Zr        29.5676353052       19.1553861119        9.9346944406
 Zr        11.0379431242       19.0516692030        9.8275699432
 Zr        11.0444390516       19.1544204978        6.2508081649
 Zr        31.3286532630       16.0840182220        9.8748028858
 Zr        31.3687287866       15.9710062943        6.2481766042
 Zr        18.6013846137       -0.0012784847        9.7634192696
 Zr        18.5069471635       -0.0074673110        6.2135967698
 Zr        12.3032813819       16.3236821514        7.9895350321
 Zr        48.6163254725       18.8329720958        8.0105708590
 Zr        20.3156246139        2.4740241189        7.9907567830
 Zr        40.6434600227       32.6872983825        7.9779380203
 Zr        28.3326301752       16.3333397075        8.0844977862
 Zr        32.6402510053       18.8105235490        8.0706376776
  H        29.8980464294       18.0048571207        1.6776883277
  H        30.8568236155       17.7904965506       15.5182865984
