     565
 i =      133, E =     -4696.1633603178
  C        11.8583861678       14.0533463541        5.7415350817
  C        12.4557255115       12.8902676572        5.0233736975
  C        11.7042561497       12.1718976073        4.0811017465
  C        12.2805646156       11.1096579177        3.3887474030
  C        13.6208771019       10.7391859367        3.6170272013
  C        14.3537261890       11.4420839566        4.5912540209
  C        13.7808952350       12.5070538224        5.2828057706
  C        14.2604383470        9.6485996565        2.8435621062
  C        14.2556538848        9.6565187580        1.4218533855
  C        13.7424986014       10.7586169419        0.6679025566
  C        49.1263760856       21.2335038811        5.8798132913
  C        48.5495068736       22.4011944665        5.1527053769
  C        49.2995618673       23.0685854701        4.1717412600
  C        48.7325762983       24.1076053136        3.4384693965
  C        47.4019749567       24.5091409680        3.6669992280
  C        46.6709796604       23.8601760290        4.6804320319
  C        47.2334662316       22.8153479989        5.4098570714
  C        46.7718222595       25.5868314393        2.8696865985
  C        46.7610141076       25.5572501081        1.4479315445
  C        47.2609009838       24.4421273695        0.7044525671
  C        14.8595863210        8.5701906629        0.7085560145
  C        14.8912920321        8.5966455652        3.5201698834
  C        49.1127914954       21.2035346379       10.1453001451
  C        48.5274633584       22.3648192792       10.8723312037
  C        49.2666458463       23.0254707722       11.8653509745
  C        48.6902884892       24.0599637500       12.5968263079
  C        47.3598835666       24.4567792509       12.3585380512
  C        46.6395266167       23.8119409701       11.3349214679
  C        47.2130915675       22.7760735825       10.6031087967
  C        46.7214773856       25.5317147130       13.1495978956
  C        46.7333241859       25.5280787027       14.5712956613
  C        47.2486618356       24.4288264532       15.3276897260
  C        40.6163961847       17.0867044906       15.3192074505
  C        40.6317272963       17.1218950742       12.5089511072
  C        11.8825789404       14.0862532160       10.2854498422
  C        12.4714774571       12.9100711099       10.9893200833
  C        11.7141806939       12.1777956190       11.9163545423
  C        12.2805047174       11.0952076433       12.5847627166
  C        13.6189077294       10.7204205988       12.3521521392
  C        14.3564799541       11.4348191658       11.3901356703
  C        13.7913138020       12.5161027434       10.7174399276
  C        14.2524901434        9.6237929161       13.1226956703
  C        14.2514624369        9.6439766417       14.5445421924
  C        13.7417769240       10.7529936336       15.2916450553
  C        22.5062445146        3.2424281739        5.7488660966
  C        23.2096546229        4.3452521464        5.0372597472
  C        24.2045767014        4.0620904003        4.0901103915
  C        24.8253622288        5.0993842934        3.3998671059
  C        24.4653500808        6.4406011130        3.6369190619
  C        23.4956108725        6.7153048095        4.6181994548
  C        22.8709545911        5.6800073783        5.3076076324
  C        25.0727950587        7.5456750295        2.8630927573
  C        25.0632967111        7.5365233657        1.4420505083
  C        24.3707549704        6.5356904833        0.6897262666
  C        38.3009270199       31.9267953088        5.8483265549
  C        37.5672312872       30.8373436759        5.1394913800
  C        36.6063863245       31.1429614860        4.1630030056
  C        35.9829524358       30.1246314415        3.4464430232
  C        36.3039725291       28.7733653972        3.6833507132
  C        37.2353952624       28.4752750770        4.6962269410
  C        37.8631975436       29.4925031925        5.4116966722
  C        35.6950984545       27.6832789005        2.8854610153
  C        35.7290447350       27.6968275107        1.4634335580
  C        36.4384564432       28.6967800943        0.7262403621
  C        25.6944105896        8.6063423128        0.7293251129
  C        25.6577556942        8.6225914310        3.5400482067
  C        38.3275282555       31.9604141987       10.1569229775
  C        37.6044446890       30.8862841290       10.8983091185
  C        36.6742389460       31.1939658070       11.9032206073
  C        36.0615472517       30.1752532721       12.6309377088
  C        36.3637092780       28.8217977847       12.3785188157
  C        37.2719029000       28.5241921665       11.3437065764
  C        37.8867622008       29.5394624107       10.6171417783
  C        35.7521886161       27.7225504402       13.1619923122
  C        35.7583387672       27.7167357344       14.5846258109
  C        36.4517391422       28.7068634406       15.3493573966
  C        46.1353799805       26.6207535475       15.2814165955
  C        46.0875081587       26.5800529090       12.4735315801
  C        22.4658112370        3.2544839886       10.2524133460
  C        23.1728136672        4.3606788722       10.9645773291
  C        24.1826231331        4.0700010009       11.8956662851
  C        24.8208915597        5.0976214191       12.5853565140
  C        24.4687097319        6.4442005986       12.3662494418
  C        23.4841171493        6.7282675650       11.4014628608
  C        22.8415170729        5.7009602628       10.7116314147
  C        25.1003284308        7.5387380451       13.1437332272
  C        25.0776548720        7.5326228396       14.5656859310
  C        24.3748965032        6.5356369514       15.3133008522
  C        26.5600710162       17.8271456889        5.7885908849
  C        25.2584468263       17.8894900705        5.0623095550
  C        24.9999799703       18.9114372511        4.1361655044
  C        23.7914982270       18.9424876647        3.4443920993
  C        22.8102967835       17.9548262039        3.6599542541
  C        23.0638607410       16.9554165230        4.6172999906
  C        24.2737153428       16.9197125442        5.3070820297
  C        21.5440930025       17.9497020403        2.8892699133
  C        21.5521350173       17.9409366118        1.4678364897
  C        22.7631237458       17.8328846454        0.7135093922
  C        34.4169658126       17.2128444412        5.9121732246
  C        35.7127311109       17.1447029084        5.1746265109
  C        35.9059480235       16.1784784659        4.1751397872
  C        37.0896146301       16.1513840066        3.4422877099
  C        38.1110430809       17.0905897088        3.6859232268
  C        37.9199363448       18.0360539809        4.7119978067
  C        36.7349852248       18.0673950527        5.4438839433
  C        39.3652248303       17.0932412905        2.8973109396
  C        39.3602762980       17.1043090009        1.4747319308
  C        38.1527359719       17.2235766123        0.7171171113
  C        20.3085204548       17.9550224972        0.7553995534
  C        20.3189180421       17.9425792906        3.5677543435
  C        34.4430136525       17.2451429270       10.1831130757
  C        35.7424985032       17.1464950576       10.9100656120
  C        35.9596181305       16.1522203849       11.8763453718
  C        37.1478750343       16.1253417506       12.6029123551
  C        38.1510914628       17.0891011891       12.3810821212
  C        37.9415772193       18.0561362691       11.3798630423
  C        36.7516818158       18.0898062700       10.6585690407
  C        39.4007604461       17.1025540400       13.1751988298
  C        39.3783296997       17.1084138619       14.5967646112
  C        38.1612867240       17.2225446419       15.3401522171
  C        35.1240145799       26.6392413003       15.2883539924
  C        35.1619747733       26.6514006606       12.4786594515
  C        26.5569992553       17.8146372257       10.3273688722
  C        25.2479790623       17.8570930303       11.0394224244
  C        24.9526851398       18.9084727352       11.9206666383
  C        23.7353004516       18.9349130971       12.5950508022
  C        22.7841649417       17.9135962969       12.4044894672
  C        23.0729322058       16.8846479935       11.4908139207
  C        24.2924367615       16.8538248196       10.8178113931
  C        21.5175075560       17.9071689110       13.1716930181
  C        21.5379390242       17.9182468285       14.5918813664
  C        22.7558679842       17.8224793829       15.3371458868
  C        14.0437830235       17.8299962339       10.2852033329
  C        15.3488594086       17.8895217128       11.0057610280
  C        15.6102010473       18.9025809629       11.9408251819
  C        16.8199251623       18.9247152930       12.6310744595
  C        17.7988908337       17.9361758543       12.4068846206
  C        17.5430429550       16.9476496588       11.4386244226
  C        16.3329393310       16.9214366238       10.7495992659
  C        19.0646992997       17.9194347890       13.1774661114
  C        19.0572562001       17.9260669919       14.5990419636
  C        17.8465012965       17.8301028620       15.3549122634
  C        46.8019529414       17.2179764713       10.1594477023
  C        45.5101182698       17.1522350234       10.9041705338
  C        45.3050840257       16.1723377524       11.8882685041
  C        44.1221045314       16.1481537631       12.6228409714
  C        43.1117326833       17.1038194009       12.3970776223
  C        43.3142315253       18.0634380883       11.3863196918
  C        44.4980192117       18.0914761241       10.6523918455
  C        41.8572548123       17.1084460793       13.1863344214
  C        41.8628702536       17.1041905982       14.6090241947
  C        43.0716088461       17.2004091368       15.3680357993
  C        20.3007910874       17.9430503853       15.3116222989
  C        20.2902179907       17.8883972134       12.4990477282
  C        46.7826894096       17.2305693654        5.8882473690
  C        45.4786051712       17.1209901559        5.1731256360
  C        45.2613621561       16.1199621538        4.2137788236
  C        44.0723348553       16.0872204558        3.4888795968
  C        43.0691888921       17.0521911631        3.7053646160
  C        43.2770456249       18.0231278532        4.7031619660
  C        44.4673387370       18.0623777596        5.4231569414
  C        41.8212596978       17.0684934211        2.9089206318
  C        41.8446417265       17.0819603698        1.4874948273
  C        43.0628746347       17.1870403870        0.7449395136
  C        46.1531274755       26.6371825254        0.7261667448
  C        46.1618445788       26.6559351279        3.5358096936
  C        14.0388789210       17.8292064387        5.7077632094
  C        15.3533133920       17.9010857602        5.0094399390
  C        15.6215967535       18.9247889329        4.0891304596
  C        16.8459343621       18.9646286331        3.4275387298
  C        17.8252359305       17.9798299412        3.6631654037
  C        17.5628399988       16.9822788780        4.6189498818
  C        16.3405492158       16.9421048863        5.2841742252
  C        19.0907048773       17.9633060933        2.8957633660
  C        19.0709415688       17.9485614768        1.4751684555
  C        17.8533628828       17.8400785618        0.7310206852
  C        28.8117570517       14.0852591314       10.3660383631
  C        28.2152511883       12.9075082023       11.0565581068
  C        28.9400944416       12.1893466828       12.0186356728
  C        28.3497582059       11.1120784691       12.6751017332
  C        27.0220498586       10.7311707546       12.3933656948
  C        26.3206709431       11.4304807107       11.3946769515
  C        26.9079350026       12.5071213086       10.7367675597
  C        26.3547408143        9.6497884545       13.1528588978
  C        26.3262879873        9.6777720484       14.5734402091
  C        26.8210345412       10.7915014980       15.3237168590
  C        32.1803972978       21.2390524689       10.1087630495
  C        32.7670033274       22.4026294158       10.8387677027
  C        32.0150140131       23.0762569958       11.8140352640
  C        32.5829915489       24.1118651687       12.5512751272
  C        33.9181380630       24.5051494731       12.3335583009
  C        34.6522528038       23.8494320156       11.3267296530
  C        34.0880001998       22.8073326277       10.5931143013
  C        34.5443816831       25.5817181921       13.1372095894
  C        34.5331641808       25.5549082245       14.5594022124
  C        34.0241414131       24.4403880213       15.2980534686
  C        25.7074926700        8.6003366691       15.2853896404
  C        25.7246167290        8.5986232439       12.4736632383
  C        32.0710711376       21.1916943104        5.8406572296
  C        32.6528733973       22.3586764958        5.1100217486
  C        31.9263860720       23.0119372239        4.1025133385
  C        32.5044671792       24.0538225113        3.3799653863
  C        33.8247842367       24.4709500964        3.6419284743
  C        34.5318363305       23.8328056737        4.6792652536
  C        33.9576272203       22.7886787083        5.3998456414
  C        34.4703413112       25.5524835194        2.8605148412
  C        34.4952196420       25.5403774366        1.4379068983
  C        34.0052005838       24.4337506335        0.6749732423
  C        40.6066088916       17.0797234153        0.7645929007
  C        40.5904437982       17.0912087019        3.5747757640
  C        28.6675922445       14.0586089399        5.8183992786
  C        28.0643944921       12.9125129803        5.0791385795
  C        28.8161062961       12.2069710874        4.1272958613
  C        28.2437835148       11.1514420210        3.4232473936
  C        26.9050655399       10.7750550187        3.6485685800
  C        26.1698719244       11.4660541005        4.6295219399
  C        26.7404927903       12.5235026698        5.3346231740
  C        26.2757096904        9.6843348579        2.8688678297
  C        26.2876402796        9.6953527197        1.4477202891
  C        26.8006131279       10.8010040218        0.6994438777
  C        18.1353512383        3.1808066041       10.3171368479
  C        17.4056762617        4.2779879699       11.0156866316
  C        16.3897761143        3.9993951848       11.9429071902
  C        15.7417811406        5.0392149846       12.6064224887
  C        16.0936439958        6.3829639315       12.3669664669
  C        17.0832162422        6.6527414452       11.4034893218
  C        17.7325848765        5.6155435461       10.7384544371
  C        15.4691408554        7.4905617278       13.1300482148
  C        15.4846041762        7.4900500442       14.5517679988
  C        16.1863366908        6.4965364521       15.3049059712
  C        42.9457477329       31.8595165023       10.0728240837
  C        43.6461254952       30.7717820947       10.8167611531
  C        44.5918884850       31.0930983009       11.8025967200
  C        45.1975738875       30.0875436713       12.5502674791
  C        44.8708590693       28.7345284032       12.3356094338
  C        43.9447765116       28.4201813521       11.3226485274
  C        43.3359892059       29.4253391491       10.5745995251
  C        45.4884297017       27.6552326480       13.1388071527
  C        45.4927185165       27.6809079482       14.5604984156
  C        44.8057608045       28.6890588386       15.3070980754
  C        14.8556246161        8.5625573461       15.2641126369
  C        14.8736359372        8.5621718515       12.4514514519
  C        42.9463806674       31.9615759045        5.8089725229
  C        43.6914971305       30.8853739711        5.0953974822
  C        44.6565028788       31.1912664263        4.1235159342
  C        45.2779617914       30.1716632607        3.4057483251
  C        44.9536803010       28.8214077911        3.6429742726
  C        44.0196828926       28.5237353444        4.6532563410
  C        43.3914942605       29.5405232222        5.3654728402
  C        45.5627324085       27.7240026983        2.8577357016
  C        45.5331924753       27.7173655733        1.4364405947
  C        44.8270307135       28.7077055209        0.6834883565
  C        35.1068732244       26.6305579087        0.7341270874
  C        35.0824750752       26.6108368167        3.5444815021
  C        18.1485671990        3.2467656834        5.7066224759
  C        17.4299226617        4.3436282595        4.9971470620
  C        16.4144242414        4.0523122117        4.0739417144
  C        15.7660133528        5.0829084020        3.3985530581
  C        16.1208780754        6.4281227755        3.6209739744
  C        17.1126361109        6.7115596064        4.5778049396
  C        17.7603973510        5.6826800298        5.2575618286
  C        15.4902171318        7.5237875976        2.8485649292
  C        15.4959803870        7.5071687462        1.4274217058
  C        16.1927335715        6.5054610385        0.6807216529
  H        10.6723244478       12.4664569584        3.9036290469
  H        11.6943747865       10.5515790214        2.6618193923
  H        15.3904702730       11.1668209725        4.7736254426
  H        14.3500947202       13.0695984834        6.0189661425
  H        13.3755474148       11.6307957933        1.2011578913
  H        50.3223077996       22.7486498330        3.9870774402
  H        49.3190126589       24.6229474131        2.6809092410
  H        45.6414248131       24.1608130729        4.8634823305
  H        46.6623448963       22.2900299925        6.1718183817
  H        47.6292277405       23.5756541095        1.2461264693
  H        14.8716690779        8.5878076914        4.6084776217
  H        50.2866550990       22.7025728537       12.0603304219
  H        49.2685892810       24.5753808013       13.3604200751
  H        45.6101334771       24.1092009164       11.1458247822
  H        46.6522145646       22.2539627513        9.8315494823
  H        47.6072590513       23.5516139278       14.7968263085
  H        40.6366723903       17.0939610767       11.4209294444
  H        48.6868638702       14.0949384852        7.7999278835
  H        10.6810355313       12.4676251139       12.0944181201
  H        11.6888272371       10.5255219280       13.2981199799
  H        15.3914851120       11.1559219521       11.2033344861
  H        14.3633757762       13.0844954259        9.9879338247
  H        13.3748947941       11.6215974952       14.7530384399
  H        47.9300135099       14.2176895713        9.7109269461
  H        47.7797850093       14.3729467742        6.4950210188
  H        49.0819900489       18.5521172294       10.8670461180
  H        10.4155331488       14.1343397001        7.9987987031
  H        24.4698524775        3.0232375889        3.9071368860
  H        25.5993669053        4.8813807857        2.6672331454
  H        23.2107597407        7.7485161460        4.8054707463
  H        22.1013462896        5.8809523253        6.0487953322
  H        23.8042676461        5.7789950839        1.2246823586
  H        36.3724104312       32.1867780552        3.9673284023
  H        35.2381927176       30.3675631355        2.6916800952
  H        37.4922224452       27.4354456190        4.8878743442
  H        38.6072398334       29.2676505098        6.1722893666
  H        37.0038202443       29.4461506665        1.2726015245
  H        25.6789361294        8.6073154761        4.6281961148
  H        36.4516125862       32.2380367323       12.1116459581
  H        35.3349958982       30.4212179301       13.4022248987
  H        37.5184311867       27.4840874846       11.1407092869
  H        38.6098380463       29.3127550348        9.8373886360
  H        37.0283213861       29.4635326894       14.8250955643
  H        46.1087557176       26.5874045577       11.3854926323
  H        44.6682729675       35.1161913261        7.8141143223
  H        24.4563772584        3.0304502938       12.0609664570
  H        25.6058661095        4.8665780998       13.3023254761
  H        23.2023395510        7.7641200559       11.2238095736
  H        22.0646063171        5.9162659870        9.9816918143
  H        23.8110031356        5.7793956160       14.7750624359
  H        44.9536892705       34.3899653699        9.6948017210
  H        44.9019117814       34.2068155913        6.4907647939
  H        40.6653125998       33.2084437546       10.8528823721
  H        23.1502059577        1.9577422664        8.0031892196
  H        25.7555232843       19.6771864220        3.9760883756
  H        23.5908816162       19.7397337911        2.7318431365
  H        22.3144809854       16.1853690395        4.7886434534
  H        24.4858275598       16.1362608901        6.0308683701
  H        23.7023568081       17.7245926243        1.2483801574
  H        35.1093905184       15.4644207228        3.9787387340
  H        37.2369882584       15.3941894695        2.6753341495
  H        38.6991583433       18.7704724626        4.9051387938
  H        36.5720593621       18.8135192070        6.2181945225
  H        37.2128697327       17.3481590540        1.2474513259
  H        20.3217807058       17.9716806252        4.6558728495
  H        35.1839996824       15.4106608472       12.0541807282
  H        37.3120506588       15.3521036290       13.3502980495
  H        38.7089353586       18.8067048984       11.2018922336
  H        36.5703698311       18.8546944469        9.9072736112
  H        37.2275728957       17.3447097624       14.7986693486
  H        35.1371185406       26.6767724803       11.3908375104
  H        28.5027162193       21.0801615283        7.8747348414
  H        25.6840248977       19.7035621834       12.0491223029
  H        23.5022139841       19.7522902046       13.2742263451
  H        22.3444886642       16.0903210554       11.3413974073
  H        24.5336599496       16.0506432536       10.1254100359
  H        23.6894949061       17.7067400342       14.7947605673
  H        28.9982912323       21.7172269587        9.7448245427
  H        29.2131856035       21.6882708450        6.5506995595
  H        32.1212664419       18.6348852652       10.8804843961
  H        27.3703178212       19.0309939715        8.0727820843
  H        14.8547163088       19.6662937860       12.1112146355
  H        17.0216421969       19.7147436663       13.3512447793
  H        18.2903311535       16.1774879563       11.2588733561
  H        16.1202630261       16.1460184748       10.0175909229
  H        16.9063726621       17.7140552941       14.8236377319
  H        46.0900319207       15.4422046726       12.0710342466
  H        43.9661287497       15.3797217116       13.3768608817
  H        42.5439185452       18.8104111682       11.2059179295
  H        44.6680019733       18.8474186767        9.8892159451
  H        44.0130173918       17.3174441765       14.8389009562
  H        20.2884392452       17.9033234283       11.4106363425
  H        46.0401230911       15.3814783719        4.0373662980
  H        43.9081771905       15.3099046058        2.7457311608
  H        42.5084570188       18.7731655828        4.8778963802
  H        44.6472456764       18.8314618318        6.1703621676
  H        43.9978094598       17.2925146905        1.2876875625
  H        46.1984430033       26.6824073572        4.6232641114
  H        52.7409444546       21.0625497915        8.1945610863
  H        14.8613167076       19.6819757834        3.9110239718
  H        17.0575219811       19.7608937218        2.7171602877
  H        18.3129414785       16.2162197046        4.8041675523
  H        16.1190284608       16.1617192713        6.0080979129
  H        16.9182842083       17.7316523476        1.2723797389
  H        52.3216502989       21.6734952576        6.2950852585
  H        52.0131687932       21.7022661686        9.4955034571
  H        49.0662904707       18.6077365812        5.2046315978
  H        13.2467336575       19.0167383472        7.9765258884
  H        29.9606069051       12.4945725397       12.2396814471
  H        28.9121372678       10.5538106164       13.4204071498
  H        25.2951772562       11.1449177147       11.1696839481
  H        26.3642323196       13.0681230464        9.9807313050
  H        27.1920686864       11.6601201221       14.7879346943
  H        30.9882738117       22.7631176399       11.9883787202
  H        31.9940202524       24.6321382987       13.3034860855
  H        35.6855192500       24.1421075437       11.1515528169
  H        34.6622197722       22.2772670556        9.8366577194
  H        33.6737767092       23.5689291980       14.7523025406
  H        25.7647223848        8.5791233791       11.3859920221
  H        30.9128665664       22.6796381564        3.8896211169
  H        31.9329896317       24.5600114574        2.6050330280
  H        35.5537294276       24.1417174518        4.8894901740
  H        34.5117959222       22.2745643574        6.1815313803
  H        33.6405341158       23.5567552221        1.2022874073
  H        40.5847304881       17.0552760891        4.6625324845
  H        32.5153181819       14.1493948320        8.2317896068
  H        29.8507911113       12.4959833576        3.9585848046
  H        28.8324440937       10.6002547913        2.6931838783
  H        25.1339654752       11.1854418526        4.8085006520
  H        26.1714372546       13.0747312358        6.0794952819
  H        27.1542738860       11.6769837378        1.2355638364
  H        33.2933283058       14.2163574143        6.4332187746
  H        33.4072622460       14.3897245092        9.5993948334
  H        32.0381319397       18.4709995691        5.0750371187
  H        30.2064381105       14.1381311000        8.0785689120
  H        16.1178421426        2.9628197784       12.1291038644
  H        14.9521761530        4.8196525816       13.3218586051
  H        17.3656223073        7.6856632262       11.2105979024
  H        18.5148422548        5.8183125882       10.0108703483
  H        16.7528555755        5.7391989081       14.7713553426
  H        44.8283255016       32.1401737555       11.9766178386
  H        45.9376078799       30.3412684840       13.3060565800
  H        43.6817972784       27.3781458933       11.1527645207
  H        42.5991372194       29.1900503204        9.8101442275
  H        44.2305029378       29.4368788838       14.7687626275
  H        14.8497157842        8.5452137172       11.3632371972
  H        44.9003999858       32.2339303428        3.9324167839
  H        46.0252043125       30.4128491019        2.6528311370
  H        43.7622400970       27.4840472221        4.8444031198
  H        42.6445830449       29.3177770955        6.1235294694
  H        44.2686149918       29.4706526053        1.2180858107
  H        35.0361989445       26.6249492549        4.6318232527
  H        36.6053095930       35.1338366089        8.1807210854
  H        16.1432206384        3.0127197953        3.9044845869
  H        14.9734508065        4.8560135802        2.6887469833
  H        17.3963809294        7.7470130723        4.7543862028
  H        18.5435352900        5.8931257234        5.9820472969
  H        16.7642671552        5.7552997907        1.2191712078
  H        36.2792000385       34.4816593981        6.2734156140
  H        36.3813188996       34.2089077898        9.4997663585
  H        40.5795894376       33.2022727385        5.1539204694
  H        17.4708969091        1.9471150444        7.9740309544
  H        28.6418703060       18.7952866259       12.0477577605
  H        28.7574100836       18.8310366818        3.7284226468
  H        30.7537787450       15.4185033024        3.7808680353
  H        32.3576884603       16.5814734658       12.2831531244
  H        29.1795786112       19.1397917841       14.5792896582
  H        18.8538952605        0.8689990484       12.3352708432
  H        40.5282732613       35.2287185748        3.9521276741
  H        42.3234837394       34.4184226539        3.5903727714
  H        22.0874388065        0.6922313569       12.3516101244
  H        11.5967113907       18.7129885502       12.3824735885
  H        52.2648633526       18.4307039170        3.6779501841
  H        49.2550297133       16.4766920424        3.5841763980
  H        10.1502517664       15.7981271335       12.2924482296
  H        50.8496596797       17.6927403708        3.9541249155
  H        10.0458903143       17.3945792743       12.0519953131
  H        20.2152618166        0.0020881605       12.0419077754
  H        39.1837361234       36.1242901994        3.6864938490
 Ni        30.3981954268       17.4981014033        2.6700880117
 Ni        31.1133007367       16.1090096143       -1.2496278159
 Ni        29.9680210098       17.1627626111        0.4104130899
 Ni        30.3066786070       17.4102981536       13.0794607260
  O        10.6497265311       14.3652410118        5.4857540909
  O        12.6129811676       14.6574052821        6.5838249057
  O        49.1475856792       16.8460360174        7.9897380546
  O        50.3500202973       20.9363636835        5.6483396847
  O        48.3484226872       20.5932351602        6.6659993611
  O        11.0505635221       17.0542489589        6.5005387404
  O        50.3206926606       20.8817069023       10.4068302985
  O        48.3465974966       20.5866585615        9.3270379276
  O        49.5430872538       18.2484601718       10.0684202736
  O        12.3585143319       18.6246147744        7.9997349991
  O        48.6931602591       14.1486389073        6.7512662629
  O         8.2097487135       14.2104545639        9.3225921528
  O        10.7351764456       14.5067987902       10.6643774140
  O        12.5716342673       14.5827138251        9.3285638811
  O        22.8439412527        2.0416804107        5.4875732519
  O        21.6045910139        3.5916591338        6.5899886955
  O        42.0579551576       34.1371499956        7.9791051108
  O        37.9812880745       33.1355108224        5.5720567789
  O        39.2175163662       31.5750412422        6.6657075000
  O        20.3083508434        1.0396657041        6.5019282075
  O        38.0241152596       33.1845755907       10.4156592596
  O        39.2185128069       31.5830739323        9.3270690565
  O        40.6521395966       33.7690910377       10.0602266072
  O        18.2557910825        1.3762498140        7.9967842905
  O        44.6222317773       35.1005195115        6.7588432274
  O        24.2054952600       -0.0001143447        9.3207613362
  O        22.7531316901        2.0565114252       10.5829644427
  O        21.6245131906        3.5956557328        9.3422840309
  O        27.4552507303       18.6958244414        5.4889581038
  O        26.6893938126       16.9181598702        6.6700511695
  O        30.6324323830       19.3490345324        7.9936893319
  O        33.5404716365       16.3266626298        5.6563924823
  O        34.2683804019       18.1785608808        6.7418273761
  O        29.5309589423       17.0058355771        6.5802419629
  O        33.5532762379       16.3437936901       10.4213178943
  O        34.2980364381       18.2385210285        9.4016334361
  O        31.6495789606       18.3216259452       10.0922648673
  O        30.2897683813       15.1052863445        8.0743461377
  O        28.5519977592       21.0264745108        6.8266280292
  O        28.5081552634       20.9533184464        9.3970933869
  O        27.4450156330       18.6754820402       10.6573757913
  O        26.6857300048       16.9267088494        9.4173214870
  O        13.1468259900       18.6935446195       10.5865248020
  O        13.9174530650       16.9156281406        9.4037421349
  O        50.5953161861       19.3503046092        8.0207903844
  O        47.6818875470       16.3274878585       10.4176622893
  O        46.9499624270       18.1756178497        9.3257320723
  O        11.0685293170       17.0161109066        9.4897085045
  O        47.6747511055       16.3358795264        5.6528699335
  O        46.9250026261       18.2357763347        6.6632729351
  O        49.5684472487       18.3178269123        5.9822717976
  O        10.3185012823       15.1002303317        7.9970932079
  O        52.6707208564       21.0280168475        9.2418357141
  O        12.1467809856       20.8914413379        6.6733003808
  O        13.1042460651       18.6143688968        5.3264268416
  O        13.9548920347       16.9862669170        6.6657503775
  O        29.9995805163       14.4407643053       10.6679294914
  O        28.0730550833       14.6554467416        9.4908955276
  O        32.0704919972       16.8542264301        8.0575336620
  O        30.9586416268       20.9510113549       10.3387738291
  O        32.9555293178       20.5910708500        9.3233394409
  O        29.5607623730       17.0657357852        9.5733589367
  O        30.8524918013       20.8758225290        5.5854744417
  O        32.8537382894       20.5852451311        6.6528633951
  O        31.6125937013       18.2379967298        5.9173321461
  O        28.2543459493       18.6295946546        8.0646460257
  O        32.4918466030       14.2115932141        9.3179980403
  O        32.4014339822       14.2156801220        6.8191033259
  O        29.8427701767       14.4290626440        5.4883899124
  O        27.9611024650       14.5828984091        6.7492806948
  O        17.8891728373        1.9665337610       10.6628410653
  O        18.9561307555        3.5271807824        9.4080692721
  O        39.1684838831       34.1385864386        7.9972013082
  O        43.2802220379       33.0588668740       10.3317179798
  O        42.0344021496       31.5064344764        9.2415851727
  O        20.3173627246        1.0362771793        9.4802575676
  O        43.2761416714       33.1824826187        5.5748806674
  O        42.0052432355       31.5841095906        6.5830047534
  O        40.5790113235       33.7750247062        5.9360005088
  O        22.3671598270        1.3843996595        7.9980179911
  O        36.6728029002       35.0996791579        9.2333548158
  O        16.4456412618        0.0640242808        6.6681928565
  O        17.9363665785        2.0432025491        5.3264004231
  O        18.9188698733        3.5931777277        6.6658884083
  O        29.6613848446       18.6855886303        4.0605447012
  O        29.6149087738       18.9054444540       11.9877284399
  O        31.1395192547       16.2606831829        4.0844961915
  O        31.4355058857       16.3366161083       12.0759082493
  O        29.1172572941       18.1644417183       14.6529813637
  O        39.4567637363       35.2436386018        4.0020399311
  O        19.1416761093        0.0045133209       11.9905068185
  O        41.9692319269       35.1722949924        4.0870897884
  O        21.6912767840       -0.0693874527       11.8960703017
  O        51.3649398468       18.6143537923        4.0053218968
  O        10.7509070927       18.7473027613       11.9050167569
  O        50.0793499555       16.4128617648        4.0917096471
  O         9.5243511834       16.4830747343       11.9912223735
 Zr         9.2958657695       16.0528844634        6.1820520267
 Zr        49.8352724283       16.0069370008        9.7467421058
 Zr        22.0732853265        0.0296266879        6.1892426247
 Zr        42.4609422516       35.1534377446        9.8010698069
 Zr        29.5602054712       19.0292375146        6.2155950056
 Zr        29.5794673261       19.1833924482        9.8038302121
 Zr        11.0365412193       19.0525936198        9.8276088125
 Zr        11.0424200172       19.1553931714        6.2514789779
 Zr        31.3304008928       16.0835470957        9.8329164017
 Zr        31.3435784552       15.9911489681        6.2320920654
 Zr        18.6012014692       -0.0017790946        9.7635947941
 Zr        18.5066487476       -0.0081209461        6.2136119377
 Zr        12.2996327716       16.3230173309        7.9904327631
 Zr        48.6148384461       18.8328382674        8.0102552320
 Zr        20.3151455898        2.4732606361        7.9908820300
 Zr        40.6429747725       32.6867637607        7.9781437871
 Zr        28.3226009556       16.3148258830        8.0808919397
 Zr        32.6032099986       18.8287517707        8.0129075932
  H        30.3811673262       16.2674953724        1.5847886889
  H        28.1868826846       17.9194255830       14.4774356781
  H        30.1160819833       18.4270064029        1.4811802762
