     569
 i =      123, E =     -4729.4981393952
  C        11.8584420546       14.0535495339        5.7416526984
  C        12.4559016219       12.8903925372        5.0233282489
  C        11.7043692940       12.1719990060        4.0811712076
  C        12.2806544745       11.1097496569        3.3887674257
  C        13.6209832495       10.7393970988        3.6169691926
  C        14.3539405531       11.4423958280        4.5910093269
  C        13.7811212255       12.5073753661        5.2825778624
  C        14.2605213677        9.6487445700        2.8435638173
  C        14.2560047740        9.6566783004        1.4218501831
  C        13.7429518318       10.7588279806        0.6679010027
  C        49.1263971233       21.2334257177        5.8798413582
  C        48.5495183749       22.4012119543        5.1526940562
  C        49.2996833400       23.0687731628        4.1719555687
  C        48.7327127420       24.1078137326        3.4386750736
  C        47.4020189736       24.5091105515        3.6669998417
  C        46.6708578140       23.8599100804        4.6801473054
  C        47.2333458479       22.8150635772        5.4095661293
  C        46.7718924364       25.5868434239        2.8697054068
  C        46.7611179077       25.5573579469        1.4479363527
  C        47.2610514078       24.4422514810        0.7044679676
  C        14.8598549548        8.5702610791        0.7086131845
  C        14.8911362837        8.5966953286        3.5202141568
  C        49.1128564532       21.2034496759       10.1453263034
  C        48.5274649558       22.3647661749       10.8724829474
  C        49.2668652592       23.0257986138       11.8650651610
  C        48.6905070839       24.0603102480       12.5965479624
  C        47.3599297787       24.4567242600       12.3586155175
  C        46.6392792844       23.8114102545       11.3355233261
  C        47.2128505263       22.7755069069       10.6037370853
  C        46.7215628120       25.5317407171       13.1496284619
  C        46.7334403176       25.5282087981       14.5713314471
  C        47.2488350214       24.4289695294       15.3276994746
  C        40.6173184487       17.0804375335       15.3017286176
  C        40.6242833893       17.1026750730       12.4912591563
  C        11.8826498263       14.0864307756       10.2854180423
  C        12.4717555873       12.9102617193       10.9895135836
  C        11.7142723252       12.1775758840       11.9160316002
  C        12.2806196542       11.0949941201       12.5844934476
  C        13.6191858979       10.7206512433       12.3522726397
  C        14.3570359239       11.4355667388       11.3908896363
  C        13.7918338948       12.5168553929       10.7181885600
  C        14.2527581950        9.6239226935       13.1227484998
  C        14.2518879266        9.6441070057       14.5445981087
  C        13.7422668952       10.7531909964       15.2916429708
  C        22.5106242192        3.2434674922        5.7520757762
  C        23.2241196730        4.3475283837        5.0487320789
  C        24.2200525142        4.0642594450        4.1025278465
  C        24.8483294525        5.1015205785        3.4182772371
  C        24.4960877468        6.4440318288        3.6604008029
  C        23.5269199747        6.7189080826        4.6423304342
  C        22.8941930672        5.6833239798        5.3251125702
  C        25.1067254432        7.5484723136        2.8858543244
  C        25.0849145085        7.5424093557        1.4641949745
  C        24.3812609915        6.5459209051        0.7161525165
  C        38.3026278377       31.9295297914        5.8482172749
  C        37.5734100110       30.8406364942        5.1380843014
  C        36.6130817499       31.1446308135        4.1608736570
  C        35.9958172790       30.1246792090        3.4421766776
  C        36.3237686472       28.7751903628        3.6787279716
  C        37.2547551275       28.4787985271        4.6922246430
  C        37.8761078250       29.4973564966        5.4099090603
  C        35.7209450395       27.6833510050        2.8819678084
  C        35.7489674284       27.6986837949        1.4600006377
  C        36.4514363841       28.7020099790        0.7217687816
  C        25.7153595386        8.6098502441        0.7467513418
  C        25.7049262508        8.6207877587        3.5587476550
  C        38.3274182177       31.9611709902       10.1556634884
  C        37.6041056281       30.8877056675       10.8947823894
  C        36.6748639479       31.1950644016       11.9006462539
  C        36.0641482313       30.1757996215       12.6285217764
  C        36.3678994799       28.8229311443       12.3749965556
  C        37.2737382170       28.5257476436       11.3380332147
  C        37.8865662618       29.5414239635       10.6111956575
  C        35.7618874715       27.7232367543       13.1598799330
  C        35.7702456409       27.7189519747       14.5825092154
  C        36.4611503259       28.7121197724       15.3446400286
  C        46.1355287649       26.6209095132       15.2814442005
  C        46.0874922439       26.5800037757       12.4735509895
  C        22.4630209673        3.2557563372       10.2567131665
  C        23.1629287710        4.3634756055       10.9772757713
  C        24.1691989724        4.0743084923       11.9127104188
  C        24.8031307060        5.1021959619       12.6068665038
  C        24.4511083364        6.4490979735       12.3882068162
  C        23.4678490903        6.7317186431       11.4212149183
  C        22.8293995894        5.7039287938       10.7274339674
  C        25.0865140595        7.5447151591       13.1630244984
  C        25.0754479397        7.5396809417       14.5857992433
  C        24.3748465770        6.5457645284       15.3393134942
  C        26.5352293756       17.8762851558        5.8315048908
  C        25.2370122561       17.9345000508        5.1075479832
  C        24.9997507877       18.9264869668        4.1423814920
  C        23.8014148182       18.9443649883        3.4341825602
  C        22.8050207693       17.9762808054        3.6721853833
  C        23.0364873485       17.0098427576        4.6696123135
  C        24.2380406031       16.9833809002        5.3730969504
  C        21.5447266889       17.9612926433        2.8932776834
  C        21.5555229675       17.9491506000        1.4709764402
  C        22.7658674218       17.8308205469        0.7178854853
  C        34.4430119717       17.2025167656        5.9066595404
  C        35.7302219201       17.1469729658        5.1651743405
  C        35.9319838642       16.1786356782        4.1673718339
  C        37.1124275875       16.1633623052        3.4310994928
  C        38.1266978697       17.1119155657        3.6722364955
  C        37.9281167575       18.0577695138        4.6971772328
  C        36.7440949483       18.0815555910        5.4294650550
  C        39.3783905208       17.1179147877        2.8833331967
  C        39.3685563174       17.1177575545        1.4601853512
  C        38.1603699610       17.2408195937        0.7061394933
  C        20.3128305923       17.9670795160        0.7559670253
  C        20.3171300483       17.9529467422        3.5685938423
  C        34.4377608304       17.2396348623       10.1750394188
  C        35.7341798127       17.1438404269       10.9021012757
  C        35.9321516459       16.1726580979       11.8956485279
  C        37.1220886758       16.1403714969       12.6180220661
  C        38.1445626543       17.0775173592       12.3685662338
  C        37.9515171650       18.0217071064       11.3419039692
  C        36.7609066045       18.0597508801       10.6225305695
  C        39.3945887202       17.0897295411       13.1599723933
  C        39.3770431490       17.1040484986       14.5826060648
  C        38.1641621961       17.2329098497       15.3286486390
  C        35.1422044208       26.6389090120       15.2877934238
  C        35.1757007349       26.6493500531       12.4781527775
  C        26.5652023059       17.8379403422       10.3370953738
  C        25.2523059140       17.8924094365       11.0333325870
  C        24.9972753690       18.8973582965       11.9793152976
  C        23.7798549205       18.9298830833       12.6517580439
  C        22.7900546033       17.9582971596       12.4017969393
  C        23.0394855935       16.9801614148       11.4220674067
  C        24.2573296144       16.9443871382       10.7475599015
  C        21.5263067164       17.9444064664       13.1717297177
  C        21.5455429914       17.9385756286       14.5932919794
  C        22.7604765843       17.8250310443       15.3411669808
  C        14.0460007310       17.8321778307       10.2846299365
  C        15.3528411973       17.8982920447       11.0030002688
  C        15.6097048946       18.9124317950       11.9385216713
  C        16.8198313494       18.9418185342       12.6281818292
  C        17.8054145618       17.9597925174       12.4036768070
  C        17.5542862713       16.9707646606       11.4343156595
  C        16.3435535188       16.9371204331       10.7458506753
  C        19.0716226853       17.9485212560       13.1754251141
  C        19.0637141669       17.9474379757       14.5975115399
  C        17.8524997380       17.8467155312       15.3513942601
  C        46.8009696300       17.2146307339       10.1550495317
  C        45.5056788336       17.1411056930       10.8904731961
  C        45.3005382213       16.1584405839       11.8717881082
  C        44.1153712653       16.1295705401       12.6018021483
  C        43.1031516956       17.0827352661       12.3737135235
  C        43.3042048854       18.0424342603       11.3625930278
  C        44.4905377673       18.0756209918       10.6335647627
  C        41.8511680707       17.0889200580       13.1648423690
  C        41.8618179603       17.0902606602       14.5881739214
  C        43.0723748675       17.1880751855       15.3423607632
  C        20.3070184155       17.9612854054       15.3115736912
  C        20.2979372810       17.9292340427       12.4989332479
  C        46.7847186224       17.2326450825        5.8850271954
  C        45.4850020167       17.1288724498        5.1629430480
  C        45.2703721619       16.1329199759        4.1974134198
  C        44.0844393760       16.1052686876        3.4676858939
  C        43.0811195036       17.0703425401        3.6848631620
  C        43.2874338305       18.0372605597        4.6873245375
  C        44.4743970632       18.0713181881        5.4124401649
  C        41.8335025076       17.0884216878        2.8897105528
  C        41.8529289967       17.0886466835        1.4669049311
  C        43.0682273923       17.1846571774        0.7202469821
  C        46.1532550198       26.6373258335        0.7261927387
  C        46.1618452891       26.6558906063        3.5358377815
  C        14.0387253453       17.8295153103        5.7073019376
  C        15.3525832784       17.9024523826        5.0080100412
  C        15.6194977197       18.9270914925        4.0882371205
  C        16.8434838190       18.9689265056        3.4260810635
  C        17.8241112135       17.9851298274        3.6603939426
  C        17.5626797427       16.9861577320        4.6150675010
  C        16.3408317582       16.9440583957        5.2810251879
  C        19.0906269302       17.9713520635        2.8945049555
  C        19.0738084437       17.9589476458        1.4735694886
  C        17.8575740540       17.8518782904        0.7277513946
  C        28.8159423784       14.0749358873       10.3676440053
  C        28.2153276276       12.9012976855       11.0549990237
  C        28.9424926887       12.1730620125       12.0089352281
  C        28.3483689142       11.1008395474       12.6694526504
  C        27.0146527156       10.7313797877       12.3994066892
  C        26.3111477409       11.4388431386       11.4076753688
  C        26.9009825527       12.5126288138       10.7471507154
  C        26.3470029323        9.6530799905       13.1638163866
  C        26.3318097222        9.6802779873       14.5850806818
  C        26.8357120150       10.7918272024       15.3323941477
  C        32.1804053380       21.2341525605       10.1399287472
  C        32.7771705838       22.3942548300       10.8625501506
  C        32.0339115986       23.0637599902       11.8472659215
  C        32.6048969335       24.1033475775       12.5744414181
  C        33.9350868665       24.5021554217       12.3393296013
  C        34.6607406267       23.8503002786       11.3239831778
  C        34.0925047097       22.8052932689       10.5980379022
  C        34.5630156450       25.5787822525       13.1386509042
  C        34.5544634012       25.5519188996       14.5610782698
  C        34.0515061565       24.4356169646       15.3004626392
  C        25.7152969839        8.6046616563       15.3019333531
  C        25.7079585921        8.6042085952       12.4889024866
  C        32.1036902787       21.2313496220        5.8784984374
  C        32.6915294748       22.3784881556        5.1368087483
  C        31.9639325535       23.0231433487        4.1235037787
  C        32.5448417737       24.0533317116        3.3889117353
  C        33.8663472085       24.4695051009        3.6469049652
  C        34.5748886317       23.8384318176        4.6882764507
  C        34.0003309472       22.8023874739        5.4187732465
  C        34.5079668134       25.5478262391        2.8612591362
  C        34.5248917365       25.5365948607        1.4384238811
  C        34.0360905480       24.4287657839        0.6776400846
  C        40.6126336401       17.0836526834        0.7472351463
  C        40.6046366134       17.1222941829        3.5582968258
  C        28.7419019263       14.0457078935        5.8244183937
  C        28.1430204647       12.8943193986        5.0980984339
  C        28.8802452762       12.2036519270        4.1227696787
  C        28.2988455565       11.1535942694        3.4175973235
  C        26.9660264561       10.7657530500        3.6630470389
  C        26.2480160168       11.4409202750        4.6687347646
  C        26.8256651639       12.4932506109        5.3747556682
  C        26.3237991807        9.6810927114        2.8838866984
  C        26.3208061611        9.6953817805        1.4617118033
  C        26.8280721461       10.8005904282        0.7086978478
  C        18.1352252388        3.1807549289       10.3170925737
  C        17.4055453151        4.2779127906       11.0155371896
  C        16.3903847373        3.9992668313       11.9435764506
  C        15.7424339689        5.0390678341       12.6071438503
  C        16.0935249144        6.3829194080       12.3669996189
  C        17.0821785302        6.6526908891       11.4025403731
  C        17.7314958597        5.6155344832       10.7374300760
  C        15.4691860832        7.4905445647       13.1301059563
  C        15.4847746801        7.4900326301       14.5518215916
  C        16.1864405179        6.4965143694       15.3050188755
  C        42.9458899155       31.8593995260       10.0728644851
  C        43.6461942157       30.7718283806       10.8167888847
  C        44.5919919874       31.0931020221       11.8026390919
  C        45.1976305165       30.0875309318       12.5502895134
  C        44.8708967611       28.7344962204       12.3356355210
  C        43.9447752397       28.4201984163       11.3226792977
  C        43.3360068240       29.4253655142       10.5746483637
  C        45.4884731579       27.6552220889       13.1388298925
  C        45.4928189360       27.6810205034       14.5605137193
  C        44.8057522880       28.6890936766       15.3071093944
  C        14.8559498935        8.5626266517       15.2641684603
  C        14.8736898437        8.5621960472       12.4515110867
  C        42.9463600973       31.9613980442        5.8089357082
  C        43.6914578128       30.8853858388        5.0954049246
  C        44.6561583690       31.1912797589        4.1231816297
  C        45.2776384133       30.1716838578        3.4054764019
  C        44.9537177339       28.8213657101        3.6430015016
  C        44.0200809006       28.5237155925        4.6536467448
  C        43.3918406110       29.5404846766        5.3658151991
  C        45.5627726745       27.7240011614        2.8577701036
  C        45.5332764788       27.7174811096        1.4364698457
  C        44.8270002197       28.7077285774        0.6835069428
  C        35.1292229666       26.6297952144        0.7331109107
  C        35.1192013974       26.6071987281        3.5432963529
  C        18.1485394497        3.2468561875        5.7067195258
  C        17.4296755124        4.3436906131        4.9975625917
  C        16.4148649002        4.0522657278        4.0736059603
  C        15.7664240169        5.0827989538        3.3981710099
  C        16.1205362663        6.4281295836        3.6212011731
  C        17.1113555376        6.7116433158        4.5790144987
  C        17.7591392218        5.6828364657        5.2588330695
  C        15.4900649208        7.5237801311        2.8486789669
  C        15.4960499754        7.5071570369        1.4275368255
  C        16.1927740736        6.5054322309        0.6808348923
  H        10.6724145666       12.4665874756        3.9038277330
  H        11.6944038376       10.5516421560        2.6619059921
  H        15.3907411170       11.1672477063        4.7732048081
  H        14.3502869243       13.0701108321        6.0186193421
  H        13.3759962968       11.6309929685        1.2011874926
  H        50.3225017166       22.7489404803        3.9874795254
  H        49.3192221767       24.6232480427        2.6812308780
  H        45.6411636225       24.1602565091        4.8629061423
  H        46.6621529930       22.2894607952        6.1712887519
  H        47.6293541527       23.5757743013        1.2461638656
  H        14.8711976677        8.5878421595        4.6085150604
  H        50.2870254537       22.7031682140       12.0597312604
  H        49.2689480859       24.5759963807       13.3598613534
  H        45.6096590173       24.1081910467       11.1468803699
  H        46.6517803606       22.2529023484        9.8326434138
  H        47.6074247774       23.5517684179       14.7967968276
  H        40.6267531320       17.0693001525       11.4033672364
  H        48.6868331903       14.0950631334        7.7999541678
  H        10.6809947088       12.4671844281       12.0937457595
  H        11.6888012853       10.5250164999       13.2975081075
  H        15.3922333343       11.1570858988       11.2045565515
  H        14.3640087359       13.0857955791        9.9891921262
  H        13.3753825707       11.6217545643       14.7529582845
  H        47.9299173042       14.2189441235        9.7106040565
  H        47.7799831288       14.3742172090        6.4950650950
  H        49.0809993437       18.5513049689       10.8667199424
  H        10.4151995166       14.1343527510        7.9988401671
  H        24.4797337988        3.0248918367        3.9142503749
  H        25.6215181381        4.8817207265        2.6852704728
  H        23.2468600939        7.7525535700        4.8345749850
  H        22.1240920669        5.8856543995        6.0655086076
  H        23.8152646679        5.7916178814        1.2549981950
  H        36.3750970502       32.1878274424        3.9669133505
  H        35.2506893557       30.3640521093        2.6866927394
  H        37.5159341374       27.4396943910        4.8816768955
  H        38.6202793737       29.2759574584        6.1712651332
  H        37.0152069240       29.4535697130        1.2666974807
  H        25.7359820750        8.6025709896        4.6466443242
  H        36.4522047101       32.2389856456       12.1096475661
  H        35.3384836444       30.4202524171       13.4010917388
  H        37.5204478179       27.4857570584       11.1347806232
  H        38.6086564977       29.3160279885        9.8302159490
  H        37.0334532731       29.4709657229       14.8189423808
  H        46.1086187687       26.5871944093       11.3855045265
  H        44.6680027499       35.1159313862        7.8140077264
  H        24.4449639293        3.0351852263       12.0776579198
  H        25.5864180694        4.8703983546       13.3254507311
  H        23.1838430582        7.7669940658       11.2435548799
  H        22.0544131335        5.9195264675        9.9954522885
  H        23.8034766373        5.7918180049       14.8056220931
  H        44.9529693632       34.3896429404        9.6946972063
  H        44.9010034779       34.2065581359        6.4905760074
  H        40.6648371870       33.2080072353       10.8526610562
  H        23.1507884947        1.9570495645        8.0049634769
  H        25.7667308849       19.6749933864        3.9584674017
  H        23.6215316152       19.7167293955        2.6896042466
  H        22.2763399795       16.2551232472        4.8603762815
  H        24.4314854054       16.2203943642        6.1232096560
  H        23.7053283359       17.7101653582        1.2499596749
  H        35.1478995758       15.4492013591        3.9778304060
  H        37.2667571613       15.4060577035        2.6655933332
  H        38.7017650306       18.7985822744        4.8883004770
  H        36.5759293914       18.8287044651        6.2016967670
  H        37.2238261499       17.3782088117        1.2389255644
  H        20.3168614022       17.9854427753        4.6566123805
  H        35.1358079503       15.4609772287       12.1007339367
  H        37.2728073236       15.3836396310       13.3847817157
  H        38.7324845962       18.7527551058       11.1432186978
  H        36.5934335019       18.8083399302        9.8519297368
  H        37.2304707526       17.3631255512       14.7891551026
  H        35.1483808433       26.6739884741       11.3903894438
  H        28.4814160595       21.1087577151        8.0100845952
  H        25.7655003410       19.6432808409       12.1700952509
  H        23.5804852174       19.7118045692       13.3812315793
  H        22.2821915998       16.2243998485       11.2242954237
  H        24.4659420379       16.1758310768       10.0074289506
  H        23.6960299372       17.6999003519       14.8042309090
  H        29.0207302054       21.7107391997        9.7513617033
  H        29.0702412154       21.8521253652        6.6430669225
  H        32.0676717880       18.5476334538       10.9299616741
  H        27.3738296864       19.0082710689        8.0535506223
  H        14.8499633827       19.6716253676       12.1101782281
  H        17.0163997449       19.7328818054       13.3486790658
  H        18.3061129953       16.2053421441       11.2531997800
  H        16.1358877349       16.1606200129       10.0134624057
  H        16.9130347924       17.7321462851       14.8186521596
  H        46.0878437618       15.4314701058       12.0568281390
  H        43.9592801313       15.3607809713       13.3554198559
  H        42.5316048474       18.7866243217       11.1805033128
  H        44.6610215192       18.8325945779        9.8715378907
  H        44.0125715528       17.2992957191       14.8099150184
  H        20.2965513118       17.9561170671       11.4107259484
  H        46.0483843201       15.3935286046        4.0214465167
  H        43.9217960872       15.3307332397        2.7213307724
  H        42.5197140206       18.7882248304        4.8618898741
  H        44.6526012383       18.8369396758        6.1635844874
  H        44.0053448988       17.2923134598        1.2587437528
  H        46.1984079662       26.6822514294        4.6232994630
  H        52.7408799324       21.0624959832        8.1945165950
  H        14.8584483323       19.6837638466        3.9112414568
  H        17.0539332555       19.7662747256        2.7165762571
  H        18.3135970976       16.2205967202        4.7989831726
  H        16.1204470717       16.1627364851        6.0042962747
  H        16.9218273315       17.7411402212        1.2674949681
  H        52.3214379726       21.6733382761        6.2951053290
  H        52.0129293623       21.7020625623        9.4954432825
  H        49.0668368896       18.6077085898        5.2045226826
  H        13.2467174306       19.0169085259        7.9764038081
  H        29.9688087058       12.4637099944       12.2220814978
  H        28.9130824692       10.5370035789       13.4087382537
  H        25.2809686026       11.1635822929       11.1915011400
  H        26.3514760666       13.0806492878       10.0007909761
  H        27.2021887616       11.6612270232       14.7948146154
  H        31.0129882097       22.7433364094       12.0396245554
  H        32.0229344686       24.6205187775       13.3340738451
  H        35.6905526813       24.1476484728       11.1368808294
  H        34.6596771770       22.2777418668        9.8346418496
  H        33.7022446257       23.5624460845       14.7568333795
  H        25.7396924324        8.5848776483       11.4009485177
  H        30.9493935889       22.6922451335        3.9139748385
  H        31.9746934614       24.5523166719        2.6084453917
  H        35.5976866275       24.1475382720        4.8935251986
  H        34.5550116745       22.2935062782        6.2036061112
  H        33.6750263756       23.5499196849        1.2043617900
  H        40.6017195673       17.0946781085        4.6463423468
  H        32.5228053429       14.1151428127        8.2736597607
  H        29.9090580221       12.5005331358        3.9326779527
  H        28.8770887212       10.6161411365        2.6692524782
  H        25.2170933024       11.1537308208        4.8649972924
  H        26.2647126491       13.0333463075        6.1336642116
  H        27.1872642593       11.6771816697        1.2402588521
  H        33.3384114396       14.1051416900        6.3883286176
  H        33.4118043631       14.4170762767        9.5902576979
  H        31.9602622161       18.4914749578        5.0473288001
  H        30.1997024716       14.2006715010        8.0356832616
  H        16.1189295687        2.9626625793       12.1303291289
  H        14.9533774126        4.8194131272       13.3231574400
  H        17.3637451106        7.6856976978       11.2088818197
  H        18.5128890310        5.8183395418       10.0089384736
  H        16.7528614687        5.7390606113       14.7715397435
  H        44.8284853555       32.1401524450       11.9766867253
  H        45.9376545818       30.3411640034       13.3061190833
  H        43.6817255593       27.3781703566       11.1528282860
  H        42.5990859955       29.1900116713        9.8102806562
  H        44.2302603939       29.4367601741       14.7688075349
  H        14.8495297270        8.5452053056       11.3633018940
  H        44.8997751251       32.2339472589        3.9317791743
  H        46.0245750883       30.4128307635        2.6522479489
  H        43.7628937926       27.4840063023        4.8450348618
  H        42.6451702349       29.3176388639        6.1240809736
  H        44.2683251799       29.4705132537        1.2180624855
  H        35.0775721655       26.6209542867        4.6307971513
  H        36.6049358137       35.1339236700        8.1806284872
  H        16.1441669378        3.0126246893        3.9036275206
  H        14.9743763330        4.8557680034        2.6878322166
  H        17.3942298236        7.7472070578        4.7563379777
  H        18.5414875455        5.8933695957        5.9841347106
  H        16.7641468974        5.7551427802        1.2192650645
  H        36.2786924601       34.4822371194        6.2734357537
  H        36.3806738589       34.2092343115        9.4999921931
  H        40.5797495581       33.2023026803        5.1540454518
  H        17.4708151310        1.9472407712        7.9741392532
  H        29.2484031664       19.3928981937       12.5577333888
  H        28.8007867594       19.0512998960        3.7589661131
  H        30.6194623609       15.4671186312        3.7763661175
  H        31.4335931789       15.6370284077       12.5662222438
  H        28.2185623613       17.8982371398       14.2997516877
  H        29.7669036764       15.5340116713       14.5576585044
  H        32.1848866653       15.8689458951        2.2023041810
  H        18.8524011247        0.8687189746       12.3351509746
  H        40.5279213007       35.2291531433        3.9521666500
  H        42.3228731056       34.4175474611        3.5913919405
  H        22.0877916725        0.6922411795       12.3515345259
  H        11.5969048544       18.7128071871       12.3823420210
  H        52.2645089199       18.4310144193        3.6777650105
  H        49.2545829793       16.4773718680        3.5851501159
  H        10.1510266515       15.7983229477       12.2924320635
  H        50.8495215208       17.6925119145        3.9541618393
  H        10.0461261976       17.3947334984       12.0519969144
  H        20.2132921686        0.0019709629       12.0422642894
  H        39.1834323762       36.1242818341        3.6862402019
 Ni        30.2242300943       17.5036204815        2.6626918650
 Ni        30.6538967197       16.5614845227        0.5007136781
 Ni        29.3750068411       18.2898435375        0.2582601735
 Ni        30.2269868341       17.4462916577       13.2423863000
  O        10.6498305610       14.3651107686        5.4857579850
  O        12.6130980555       14.6573932639        6.5838922434
  O        49.1476768104       16.8460087588        7.9898353907
  O        50.3500456617       20.9364504621        5.6483454075
  O        48.3484422575       20.5933077374        6.6660221216
  O        11.0512141811       17.0538564781        6.5005954604
  O        50.3207737692       20.8817773482       10.4068653898
  O        48.3466488361       20.5867337794        9.3270595465
  O        49.5431992661       18.2485017656       10.0684067297
  O        12.3585718264       18.6246181909        7.9998473968
  O        48.6931047574       14.1486207868        6.7512426372
  O         8.2097990382       14.2103565641        9.3225802163
  O        10.7352890618       14.5066909688       10.6644109213
  O        12.5717591824       14.5827276571        9.3285843999
  O        22.8444811677        2.0427077132        5.4871402329
  O        21.6058203736        3.5926444390        6.5895136547
  O        42.0579663758       34.1371454350        7.9791423371
  O        37.9818514449       33.1383654946        5.5726284172
  O        39.2180573687       31.5763878864        6.6664313876
  O        20.3084525159        1.0399514255        6.5020193357
  O        38.0245208285       33.1855092461       10.4151162894
  O        39.2191116378       31.5837606945        9.3264137539
  O        40.6521410772       33.7691620680       10.0603376939
  O        18.2557243274        1.3763867553        7.9968478975
  O        44.6222218082       35.1005617580        6.7587503282
  O        24.2053658621        0.0000262257        9.3208628686
  O        22.7533995842        2.0578370877       10.5839682670
  O        21.6250552226        3.5968620175        9.3438239323
  O        27.4156652811       18.7694492382        5.5714612484
  O        26.6952174176       16.9172823667        6.6693512602
  O        30.6315958123       19.3448600633        8.0050061426
  O        33.5855405693       16.2773638788        5.6574373217
  O        34.2703019194       18.1667722472        6.7271495560
  O        29.4456640086       16.9949026557        6.3964947711
  O        33.5538630397       16.3367132056       10.4031212287
  O        34.2910877921       18.2377473963        9.3916401503
  O        31.6491171560       18.3110421129       10.0831418232
  O        30.3212035390       15.1642688461        8.0570035977
  O        28.5128724847       21.0999678304        6.9114564886
  O        28.5143513216       20.9556588168        9.4039491738
  O        27.4591403573       18.6795378302       10.6589350343
  O        26.6872519928       16.9276831346        9.4259458877
  O        13.1472665942       18.6937739446       10.5865804455
  O        13.9186964701       16.9161971102        9.4047140296
  O        50.5953973997       19.3502669966        8.0210108680
  O        47.6828781940       16.3269787360       10.4170989497
  O        46.9505207070       18.1755428233        9.3252251636
  O        11.0688007581       17.0159577478        9.4897534471
  O        47.6759057508       16.3358691314        5.6527192384
  O        46.9257449145       18.2357193290        6.6633629555
  O        49.5686573063       18.3177966772        5.9823827186
  O        10.3183906848       15.1002535727        7.9971173716
  O        52.6707113928       21.0280236134        9.2418238370
  O        12.1467321027       20.8913889917        6.6733189279
  O        13.1037587023       18.6145272420        5.3264608628
  O        13.9552616431       16.9865832256        6.6654609795
  O        30.0009106079       14.4341266905       10.6618884468
  O        28.0752570881       14.6535537505        9.4903725928
  O        32.0705688041       16.8582244224        8.0027603528
  O        30.9623831188       20.9482752929       10.3997752206
  O        32.9435344081       20.5950113285        9.3293602216
  O        29.5646983068       17.0730335388        9.5015887581
  O        30.8679598608       20.9527687188        5.6640233321
  O        32.8732357590       20.5845430628        6.6645130912
  O        31.6028711779       18.2444571059        5.9188416872
  O        28.2669033371       18.6266695886        8.0650341063
  O        32.4968593450       14.2108901153        9.3198183691
  O        32.4369566495       14.1561858137        6.7468269035
  O        29.9139861982       14.4348228285        5.4852209998
  O        28.0378258545       14.5860759798        6.7499129670
  O        17.8892220367        1.9665328210       10.6628161395
  O        18.9562715363        3.5271363422        9.4080611354
  O        39.1686436599       34.1387947655        7.9971900854
  O        43.2802179826       33.0589759813       10.3316774176
  O        42.0345384257       31.5064704978        9.2415957122
  O        20.3174833579        1.0364649590        9.4803468658
  O        43.2760707638       33.1825530272        5.5749447331
  O        42.0052485371       31.5841022359        6.5830347218
  O        40.5791856094       33.7751818412        5.9360497565
  O        22.3671697459        1.3845626757        7.9981066849
  O        36.6727385894       35.0997519311        9.2332816020
  O        16.4455053214        0.0643056309        6.6683318519
  O        17.9364215399        2.0433569508        5.3264353821
  O        18.9191466391        3.5931473535        6.6659611900
  O        29.6544679690       18.8322033652        4.1747028809
  O        29.8662935922       18.8997550126       11.9834959002
  O        31.1410605896       16.2638852220        3.9994222238
  O        31.3015297447       16.4171284092       11.9923327918
  O        32.3464357194       15.6055057417        1.2592881073
  O        30.5923629292       16.0540995665       14.5661736101
  O        29.0524813060       18.3937918833       14.4179503028
  O        39.4567917640       35.2438210517        4.0019932128
  O        19.1404461628        0.0042148078       11.9906493356
  O        41.9695570954       35.1724659147        4.0872298856
  O        21.6913472498       -0.0690936978       11.8958568524
  O        51.3645936357       18.6143465921        4.0053221933
  O        10.7509932009       18.7472572714       11.9050605760
  O        50.0794574515       16.4128141946        4.0917276595
  O         9.5248939229       16.4830326311       11.9912259294
 Zr         9.2956514213       16.0529976602        6.1822613224
 Zr        49.8351574494       16.0071027556        9.7467910435
 Zr        22.0727608785        0.0287724337        6.1894973554
 Zr        42.4605054853       35.1525280060        9.8010093009
 Zr        29.5607538243       19.2238553059        6.2447599312
 Zr        29.5765224197       19.1653361111        9.8746973278
 Zr        11.0366821809       19.0524607915        9.8277509275
 Zr        11.0423667823       19.1551351830        6.2516593137
 Zr        31.3421179774       16.1004381386        9.8717559331
 Zr        31.4718090070       15.9620606931        6.2264777506
 Zr        18.6005211664       -0.0025262686        9.7633509911
 Zr        18.5061402334       -0.0082233379        6.2136692977
 Zr        12.3000503006       16.3235098354        7.9907159121
 Zr        48.6145133448       18.8326139638        8.0104026334
 Zr        20.3147004263        2.4725131995        7.9910072453
 Zr        40.6426457766       32.6859261434        7.9784014970
 Zr        28.2727143001       16.3095915634        8.1316022674
 Zr        32.6156843474       18.8414582295        8.0173259067
  H        29.0281716559       18.0615249098        1.7788361528
  H        29.0316054800       16.7680079345        5.5391507526
  H        33.0377502539       16.2174744682        0.9475020397
