     576
 i =      264, E =     -4780.0814134453
  C        11.8589018786       14.0536039649        5.7414202738
  C        12.4563122905       12.8905211972        5.0233215982
  C        11.7045907917       12.1714973162        4.0817525000
  C        12.2809585436       11.1092655868        3.3894486621
  C        13.6216100002       10.7396623367        3.6170332896
  C        14.3549620370       11.4435636375        4.5901135596
  C        13.7820638497       12.5085742775        5.2815615848
  C        14.2611640796        9.6490343570        2.8436011678
  C        14.2563357359        9.6568256993        1.4219057271
  C        13.7431286766       10.7589520687        0.6680339831
  C        49.1269540211       21.2331647089        5.8796020353
  C        48.5501853020       22.4011664289        5.1525039412
  C        49.3002397947       23.0685305746        4.1715708977
  C        48.7332751612       24.1076481340        3.4383415808
  C        47.4027636594       24.5093234704        3.6670394429
  C        46.6718510320       23.8604986720        4.6806061595
  C        47.2343270445       22.8156222626        5.4099788953
  C        46.7724689308       25.5870401999        2.8698281178
  C        46.7613139788       25.5573551726        1.4480673085
  C        47.2611799893       24.4422388793        0.7045595208
  C        14.8603317157        8.5705075749        0.7086639492
  C        14.8919401896        8.5970988793        3.5202615185
  C        49.1133521874       21.2034572562       10.1453364149
  C        48.5279299537       22.3648111899       10.8726158075
  C        49.2670873743       23.0254541516       11.8656141210
  C        48.6907139555       24.0599973721       12.5970817492
  C        47.3603689568       24.4568883434       12.3586945775
  C        46.6400319381       23.8120271616       11.3350931054
  C        47.2136193752       22.7761359037       10.6033140149
  C        46.7218566046       25.5318237180       13.1497256077
  C        46.7334618671       25.5281481816       14.5714333500
  C        47.2488975044       24.4289191976       15.3277979086
  C        40.6365940456       17.1461583296       15.3229646369
  C        40.6577893860       17.1815719439       12.5141883686
  C        11.8831160926       14.0865315436       10.2855458674
  C        12.4725233589       12.9108612221       10.9898811708
  C        11.7148896113       12.1773969027       11.9156868421
  C        12.2815100615       11.0949821832       12.5841340008
  C        13.6203973786       10.7214131434       12.3524355286
  C        14.3585456440       11.4373054820       11.3920143009
  C        13.7930733523       12.5184389916       10.7192908437
  C        14.2539348463        9.6246374046       13.1228737060
  C        14.2525880121        9.6445394862       14.5447119725
  C        13.7426246558       10.7534471966       15.2917815387
  C        22.5128304937        3.2444768567        5.7532958508
  C        23.2292564887        4.3487805067        5.0542609478
  C        24.2257926228        4.0668710895        4.1080476248
  C        24.8549029745        5.1050713831        3.4259261191
  C        24.5037520683        6.4476757669        3.6699940257
  C        23.5355663370        6.7210680077        4.6534186083
  C        22.9016831620        5.6846693355        5.3339460416
  C        25.1112775027        7.5530006183        2.8938592279
  C        25.0820086757        7.5464001048        1.4723889391
  C        24.3773701791        6.5485029225        0.7267213573
  C        38.2985980305       31.9282458838        5.8519889710
  C        37.5579831797       30.8393941402        5.1500569325
  C        36.5936023566       31.1463940692        4.1777475394
  C        35.9644938077       30.1284381572        3.4661868598
  C        36.2844711767       28.7773137343        3.7039689808
  C        37.2181360660       28.4776953293        4.7139962893
  C        37.8512948398       29.4946854855        5.4248584269
  C        35.6752129277       27.6892619645        2.9045170912
  C        35.7163155970       27.7042675613        1.4828661900
  C        36.4311458717       28.7040256508        0.7502698794
  C        25.7056359126        8.6157566433        0.7521455882
  C        25.7114450753        8.6264785868        3.5641159336
  C        38.3309260161       31.9614609997       10.1600233411
  C        37.6145484953       30.8886190734       10.9097122477
  C        36.6826675276       31.1988481910       11.9121775365
  C        36.0732167572       30.1821703856       12.6454313440
  C        36.3807563348       28.8287922162       12.4002315022
  C        37.2936805379       28.5283919359       11.3705807739
  C        37.9050806776       29.5416441005       10.6385943572
  C        35.7657735980       27.7307483313       13.1820786348
  C        35.7623096107       27.7256464861       14.6045518076
  C        36.4517524613       28.7151214873       15.3736280130
  C        46.1353699675       26.6207491486       15.2815611350
  C        46.0879765895       26.5802205625       12.4736558942
  C        22.4612273771        3.2561142718       10.2577962498
  C        23.1554936475        4.3645642641       10.9806812139
  C        24.1573887202        4.0782002076       11.9217088793
  C        24.7856967111        5.1080814333       12.6177401168
  C        24.4322233113        6.4542469586       12.3959008041
  C        23.4534511176        6.7338044232       11.4233227174
  C        22.8204207807        5.7041929069       10.7277547266
  C        25.0639131266        7.5519638041       13.1700764561
  C        25.0584978863        7.5450046828       14.5929646612
  C        24.3642820815        6.5488714702       15.3498618822
  C        26.6206481252       17.8621827015        5.7844068705
  C        25.3147066863       17.9014878956        5.0568255404
  C        25.0529215343       18.8976004550        4.1027602096
  C        23.8404862495       18.9152249288        3.4158039545
  C        22.8520465836       17.9405457758        3.6619295264
  C        23.1103043440       16.9662644514        4.6446004616
  C        24.3253806768       16.9424839543        5.3280811411
  C        21.5782668799       17.9264515191        2.8983861049
  C        21.5785315825       17.9057487441        1.4758447431
  C        22.7841282210       17.7802812999        0.7157084139
  C        34.4409600757       17.1917527142        5.9160534204
  C        35.7313089308       17.1462219781        5.1695729644
  C        35.9334810487       16.1859749809        4.1661377137
  C        37.1141034028       16.1771345311        3.4291878319
  C        38.1246041687       17.1259964524        3.6782014723
  C        37.9250673546       18.0664954179        4.7064567078
  C        36.7411014331       18.0818955241        5.4394063455
  C        39.3794428970       17.1374809976        2.8944398492
  C        39.3764920850       17.1582470780        1.4732305852
  C        38.1704052535       17.2850649236        0.7146108568
  C        20.3319737501       17.9268026575        0.7672108059
  C        20.3534100246       17.9307014239        3.5806676466
  C        34.4829098120       17.2459933268       10.1773449510
  C        35.7829977885       17.1789585164       10.9051228814
  C        36.0029079214       16.1910632693       11.8765135439
  C        37.1874885646       16.1773647099       12.6069288867
  C        38.1806876336       17.1499801238       12.3825672811
  C        37.9679258908       18.1131491960       11.3792532899
  C        36.7803635421       18.1327111755       10.6531351397
  C        39.4268718488       17.1688901716       13.1780024154
  C        39.4007046143       17.1744738440       14.5984634527
  C        38.1815269092       17.2905232808       15.3378970081
  C        35.1220452153       26.6491510270       15.3042912947
  C        35.1788973270       26.6603695803       12.4948379747
  C        26.5740691286       17.8280205721       10.3263623097
  C        25.2588648191       17.8718376800       11.0325171297
  C        24.9950136055       18.8752561589       11.9770282620
  C        23.7771703284       18.9000478336       12.6508923107
  C        22.7934626986       17.9218476608       12.4031168123
  C        23.0516105056       16.9433999465       11.4260656845
  C        24.2704150836       16.9161996596       10.7509167221
  C        21.5296587831       17.9029484921       13.1758463277
  C        21.5535163656       17.8922340739       14.5974036953
  C        22.7717726845       17.7737225293       15.3392268174
  C        14.0471003644       17.8288767244       10.2889911445
  C        15.3516713692       17.8864180570       11.0137693427
  C        15.6080783296       18.8889130385       11.9622955091
  C        16.8171295799       18.9097390208       12.6551161714
  C        17.8043733209       17.9309125530       12.4218401209
  C        17.5527359716       16.9528153931       11.4410489171
  C        16.3431495096       16.9273397607       10.7498291996
  C        19.0733775201       17.9131289986       13.1910891590
  C        19.0719848110       17.9096650574       14.6136351324
  C        17.8648657611       17.8123243746       15.3749040871
  C        46.8073230660       17.2203382795       10.1595985168
  C        45.5200689511       17.1647580242       10.9086059869
  C        45.3134501701       16.1907475019       11.8973835099
  C        44.1338162624       16.1803337733       12.6365115513
  C        43.1327291564       17.1441848573       12.4075934526
  C        43.3368590184       18.0981602151       11.3926883216
  C        44.5170043654       18.1124562937       10.6547148446
  C        41.8803142332       17.1612726711       13.1951480794
  C        41.8843443670       17.1578301423       14.6166057452
  C        43.0925397119       17.2478139851       15.3770347927
  C        20.3187311738       17.9186828583       15.3221172360
  C        20.2977176996       17.8930991874       12.5090264693
  C        46.7860034354       17.2305678097        5.8908112859
  C        45.4817946674       17.1246581812        5.1782415195
  C        45.2630450380       16.1291340335        4.2142424271
  C        44.0748119897       16.1054780931        3.4885247293
  C        43.0769365415       17.0739907770        3.7109213334
  C        43.2851161819       18.0376938887        4.7150237741
  C        44.4745881991       18.0680581603        5.4353904024
  C        41.8325985499       17.1027156006        2.9124103239
  C        41.8602123445       17.1263467585        1.4919484569
  C        43.0810950078       17.2304127437        0.7535920776
  C        46.1532492425       26.6372113552        0.7263216436
  C        46.1625938186       26.6562045668        3.5359498979
  C        14.0459988494       17.8315355293        5.7085031993
  C        15.3671604363       17.9054525343        5.0183271562
  C        15.6414110137       18.9201664122        4.0891418198
  C        16.8705777857       18.9564262798        3.4344681169
  C        17.8535902546       17.9771931644        3.6828767952
  C        17.5861581384       16.9916317257        4.6505096514
  C        16.3591024229       16.9548405322        5.3087994542
  C        19.1208120776       17.9508203760        2.9136813896
  C        19.0968213344       17.9278119482        1.4920961886
  C        17.8769727107       17.8205103258        0.7511418883
  C        28.8129970299       14.0949258459       10.3951038047
  C        28.1995078023       12.9207579382       11.0821612127
  C        28.9270154987       12.1674978423       12.0154803398
  C        28.3272859490       11.0921306422       12.6663793893
  C        26.9860556851       10.7448776708       12.4066681387
  C        26.2798625419       11.4779278685       11.4362894017
  C        26.8770538767       12.5541640820       10.7848802347
  C        26.3176082820        9.6637460598       13.1671529148
  C        26.3083656579        9.6886292191       14.5881597293
  C        26.8156376250       10.8000579905       15.3334026086
  C        32.1804365512       21.2437942743       10.1439825194
  C        32.7749978624       22.4089779103       10.8658251290
  C        32.0223797088       23.0926119361       11.8333011200
  C        32.5909993780       24.1329233338       12.5622177203
  C        33.9286087802       24.5175187453       12.3462126995
  C        34.6642353212       23.8520323598       11.3473770766
  C        34.0976208136       22.8068781889       10.6196744191
  C        34.5548687637       25.5927818088       13.1498932021
  C        34.5334613287       25.5666343154       14.5716705839
  C        34.0136568305       24.4544674004       15.3066031321
  C        25.6980557284        8.6113346297       15.3072650056
  C        25.6786233124        8.6146036361       12.4936836178
  C        32.0762601780       21.2019242999        5.8746622697
  C        32.6460348984       22.3640755678        5.1291258650
  C        31.9079979278       23.0238790177        4.1341609171
  C        32.4814939540       24.0634594098        3.4034423055
  C        33.8065155705       24.4753418147        3.6499919994
  C        34.5254520158       23.8301374059        4.6745713398
  C        33.9576500965       22.7862083978        5.3993926720
  C        34.4482177351       25.5609653810        2.8712665743
  C        34.4771218670       25.5512956248        1.4493411016
  C        33.9851986136       24.4480601171        0.6831158049
  C        40.6240329269       17.1337657575        0.7668575260
  C        40.6013366701       17.1262986998        3.5760388716
  C        28.7489636425       14.0679205447        5.8185288666
  C        28.1389747710       12.9214580235        5.0800119550
  C        28.8743026594       12.2296441030        4.1055126397
  C        28.2955597152       11.1716678023        3.4083663619
  C        26.9649823975       10.7800945595        3.6592864758
  C        26.2465623917       11.4604810993        4.6602461749
  C        26.8240385033       12.5183101506        5.3599338841
  C        26.3234816871        9.6891773554        2.8866613055
  C        26.3120266504        9.7022249446        1.4646896830
  C        26.8143579965       10.8082613319        0.7094438965
  C        18.1354195305        3.1810558600       10.3171540847
  C        17.4063352199        4.2782680743       11.0159144855
  C        16.3904381538        3.9999297372       11.9432619469
  C        15.7427204726        5.0399400772       12.6066981645
  C        16.0948272714        6.3836498504       12.3671718750
  C        17.0841852997        6.6531464604       11.4033721898
  C        17.7332940857        5.6157867743       10.7383643561
  C        15.4702812484        7.4912717638       13.1301395817
  C        15.4856695936        7.4906038951       14.5518527818
  C        16.1870904464        6.4969021213       15.3050349510
  C        42.9458475797       31.8595852575       10.0728364640
  C        43.6461363440       30.7718922062       10.8168655481
  C        44.5915443423       31.0932300357       11.8030478108
  C        45.1971423992       30.0877051439       12.5508365101
  C        44.8711524228       28.7345837513       12.3356610700
  C        43.9455340674       28.4202476807       11.3222454099
  C        43.3368366965       29.4253606446       10.5740683485
  C        45.4885530264       27.6552379867       13.1389262402
  C        45.4927868590       27.6809410053       14.5606223002
  C        44.8055640685       28.6888789080       15.3072723712
  C        14.8564893142        8.5629554752       15.2642364799
  C        14.8752879651        8.5632086012       12.4515571092
  C        42.9465097487       31.9616901895        5.8090034365
  C        43.6918862070       30.8855408990        5.0956737560
  C        44.6562180892       31.1914567025        4.1231150370
  C        45.2777816118       30.1718783142        3.4054080935
  C        44.9541828979       28.8215437027        3.6432082332
  C        44.0210211882       28.5238562795        4.6542881340
  C        43.3927194135       29.5406251746        5.3664324850
  C        45.5631754079       27.7241527917        2.8579155951
  C        45.5332852945       27.7173692480        1.4366188640
  C        44.8269504143       28.7075922567        0.6836658276
  C        35.0958662802       26.6400736602        0.7495704235
  C        35.0588894438       26.6169837265        3.5599349949
  C        18.1487163247        3.2470443833        5.7065050127
  C        17.4300370013        4.3438244378        4.9973628752
  C        16.4147841473        4.0525793531        4.0738174983
  C        15.7664662473        5.0832326242        3.3984933962
  C        16.1212989017        6.4284512129        3.6210964192
  C        17.1127974566        6.7118116465        4.5782351270
  C        17.7604917076        5.6828786579        5.2579463033
  C        15.4907732067        7.5241576127        2.8486976441
  C        15.4965158690        7.5074026992        1.4275699331
  C        16.1933652902        6.5057783730        0.6808488769
  H        10.6723576822       12.4654022187        3.9049771630
  H        11.6946234542       10.5505741320        2.6631109765
  H        15.3921253214       11.1692839802        4.7715732659
  H        14.3516419502       13.0720386743        6.0167239526
  H        13.3761554880       11.6310951543        1.2013400614
  H        50.3229027443       22.7483874669        3.9867313017
  H        49.3197609739       24.6229035129        2.6807535938
  H        45.6423973742       24.1613568868        4.8638504402
  H        46.6633482157       22.2903254650        6.1720604305
  H        47.6298049238       23.5759065134        1.2462626897
  H        14.8725049122        8.5884555502        4.6085713387
  H        50.2871000687       22.7025196359       12.0605884424
  H        49.2691026365       24.5754053861       13.3606231640
  H        45.6106895196       24.1094022668       11.1459053312
  H        46.6528901502       22.2540364334        9.8316399645
  H        47.6077059618       23.5518080473       14.7969018009
  H        40.6649467340       17.1509925929       11.4263487755
  H        48.6871718559       14.0949652892        7.8000657973
  H        10.6813517572       12.4663195839       12.0929364622
  H        11.6896589963       10.5243567806       13.2965947830
  H        15.3940944647       11.1596796474       11.2063332012
  H        14.3655896895       13.0881023585        9.9911258447
  H        13.3758553842       11.6220744779       14.7531250473
  H        47.9302527306       14.2184951494        9.7108669161
  H        47.7801603445       14.3740202898        6.4953231245
  H        49.0851491973       18.5527854260       10.8676824062
  H        10.4162386910       14.1342405201        7.9986794667
  H        24.4847507701        3.0277923473        3.9172493409
  H        25.6276035576        4.8860064006        2.6921932257
  H        23.2570886617        7.7546261511        4.8484090955
  H        22.1320242763        5.8868017180        6.0748424737
  H        23.8156505578        5.7923775227        1.2674239998
  H        36.3621332261       32.1905744872        3.9811435620
  H        35.2176797314       30.3713209110        2.7134331745
  H        37.4733191892       27.4375147834        4.9058826236
  H        38.5979087987       29.2700366493        6.1829752883
  H        36.9940876884       29.4524978256        1.3002479277
  H        25.7477412560        8.6090331867        4.6518851053
  H        36.4552876505       32.2433006437       12.1133755198
  H        35.3439326096       30.4295518221       13.4136921153
  H        37.5449629344       27.4880549464       11.1747803158
  H        38.6307155140       29.3136446533        9.8615978374
  H        37.0313767124       29.4718870159       14.8527070456
  H        46.1095211236       26.5876813243       11.3856199449
  H        44.6683476619       35.1162372289        7.8139984448
  H        24.4348304536        3.0399041484       12.0889288410
  H        25.5662570971        4.8787979590       13.3400428015
  H        23.1688820983        7.7684097725       11.2427019537
  H        22.0489945358        5.9176327706        9.9914487722
  H        23.7920274450        5.7935787926       14.8190560508
  H        44.9539997367       34.3905709988        9.6952981352
  H        44.9020203899       34.2068931641        6.4906848697
  H        40.6667189392       33.2095978492       10.8533925074
  H        23.1503869786        1.9580704523        8.0053075742
  H        25.8105685480       19.6557088446        3.9176377568
  H        23.6431089193       19.6938635343        2.6820642758
  H        22.3594904680       16.2040877294        4.8431506660
  H        24.5352114766       16.1764455257        6.0709680885
  H        23.7251916798       17.6574283721        1.2440843154
  H        35.1498486423       15.4571839039        3.9734997189
  H        37.2706358685       15.4252466479        2.6588217805
  H        38.6981213997       18.8067948273        4.9019925727
  H        36.5697224059       18.8217600801        6.2178436331
  H        37.2302891508       17.4078362753        1.2445753526
  H        20.3603558453       17.9703183829        4.6685582171
  H        35.2283695366       15.4481594158       12.0519697269
  H        37.3581701113       15.4092864928       13.3580949716
  H        38.7301053222       18.8693421108       11.2028493689
  H        36.5927464546       18.8926312305        9.8982829783
  H        37.2499571784       17.4169188902       14.7935799591
  H        35.1612725648       26.6852664225       11.4068982886
  H        28.5009308906       21.0867019666        7.9670080497
  H        25.7573268686       19.6279780971       12.1648632543
  H        23.5726142755       19.6820164070       13.3789789437
  H        22.3003898102       16.1813066067       11.2289898647
  H        24.4854804753       16.1491268478       10.0108286816
  H        23.7033292483       17.6464818150       14.7958698465
  H        29.0008308678       21.7215007662        9.7637333875
  H        29.1637748636       21.7394657211        6.6224830443
  H        32.1518100509       18.5769517063       10.9132593819
  H        27.3967368822       19.0698643954        8.0830193594
  H        14.8494077366       19.6475419277       12.1412827343
  H        17.0120146144       19.6935369459       13.3839600983
  H        18.3043881403       16.1892215549       11.2515393784
  H        16.1377490339       16.1587479997       10.0085105014
  H        16.9221642329       17.6981316786       14.8477029947
  H        46.0941029855       15.4558506509       12.0792872557
  H        43.9722989225       15.4174117397       13.3948562586
  H        42.5711688829       18.8499895398       11.2131333714
  H        44.6927314058       18.8627436601        9.8874479836
  H        44.0350233544       17.3623975839       14.8492342992
  H        20.2919535429       17.9237237387       11.4209073134
  H        46.0401539045       15.3897371518        4.0344979177
  H        43.9072764869       15.3341974969        2.7399028329
  H        42.5186082780       18.7890679823        4.8928852466
  H        44.6584538091       18.8316392494        6.1871399186
  H        44.0148369811       17.3305139849        1.2993218161
  H        46.1996398110       26.6828090836        4.6233868433
  H        52.7412687180       21.0626110909        8.1946862549
  H        14.8814065124       19.6742154546        3.8965639791
  H        17.0821221520       19.7464560334        2.7171032077
  H        18.3363016722       16.2292369329        4.8504010635
  H        16.1377749347       16.1808568962        6.0396479587
  H        16.9433089903       17.7126466268        1.2949252703
  H        52.3226182485       21.6733291418        6.2941908003
  H        52.0131724646       21.7020164128        9.4956122131
  H        49.0678890076       18.6076857132        5.2039669599
  H        13.2479395133       19.0159658704        7.9773163379
  H        29.9615576728       12.4378248177       12.2148896109
  H        28.8928002409       10.5077070450       13.3889863787
  H        25.2434584755       11.2197577447       11.2286120737
  H        26.3292456890       13.1410537834       10.0517385639
  H        27.1793731213       11.6682927898       14.7923049213
  H        30.9948493604       22.7835197629       12.0091784999
  H        32.0012579203       24.6622071869       13.3075044497
  H        35.6995877706       24.1387470598       11.1745694602
  H        34.6714616836       22.2684846987        9.8688416938
  H        33.6603405108       23.5863215834       14.7576289540
  H        25.7059614649        8.5967828387       11.4055731076
  H        30.8859682761       22.7058775308        3.9401871029
  H        31.9012451289       24.5749179568        2.6383839488
  H        35.5507651572       24.1358785898        4.8724404048
  H        34.5200234556       22.2675616994        6.1721211072
  H        33.6100998945       23.5745724209        1.2085620167
  H        40.5926613805       17.0818106731        4.6634234918
  H        32.5115730391       14.1403822963        8.2437130408
  H        29.9002221336       12.5351725570        3.9127892127
  H        28.8740424865       10.6307156126        2.6625957117
  H        25.2168367052       11.1715490446        4.8605582183
  H        26.2659949908       13.0589023666        6.1207433837
  H        27.1760142662       11.6830138119        1.2419613841
  H        33.3101949503       14.2251326791        6.4674881840
  H        33.4115473083       14.4027089183        9.5966899721
  H        32.1037678228       18.4916892188        5.1722979532
  H        30.2216494550       14.1846043599        8.0749272594
  H        16.1183115307        2.9634381416       12.1296300623
  H        14.9532488066        4.8206021005       13.3223457833
  H        17.3667811179        7.6860015780       11.2103871543
  H        18.5154370886        5.8184700387       10.0106364964
  H        16.7538311503        5.7396965990       14.7715411163
  H        44.8275832722       32.1403305135       11.9774735533
  H        45.9368976530       30.3414872818       13.3068804605
  H        43.6832479161       27.3781310741       11.1517812613
  H        42.6005120659       29.1900092941        9.8091249469
  H        44.2302987615       29.4367237817       14.7689807813
  H        14.8516600838        8.5465124253       11.3633332860
  H        44.8996317703       32.2341499879        3.9315608300
  H        46.0245214714       30.4131584274        2.6520194261
  H        43.7643223867       27.4840967670        4.8460559605
  H        42.6464902222       29.3178142066        6.1251408422
  H        44.2684829348       29.4705101328        1.2182490243
  H        35.0100767597       26.6288692432        4.6471969112
  H        36.6052932776       35.1340942785        8.1806037889
  H        16.1435638586        3.0130219438        3.9042199038
  H        14.9740706055        4.8564379961        2.6884739304
  H        17.3965202327        7.7472485405        4.7549644631
  H        18.5435086798        5.8933612892        5.9825489072
  H        16.7648820481        5.7555973480        1.2192778147
  H        36.2788839007       34.4823038452        6.2731136502
  H        36.3812008290       34.2089462012        9.4993841789
  H        40.5796265581       33.2022040814        5.1538070480
  H        17.4710437240        1.9474979933        7.9740528809
  H        29.1784475702       19.3045857773       12.4898393260
  H        29.5067315047       19.5044159358        3.5864385835
  H        31.8501152110       15.8346764428        3.5941000301
  H        31.4657717634       15.5922225790       12.5108867884
  H        28.2494856667       17.7373407440       14.4350705540
  H        29.8602559011       15.3907962330       14.5202085850
  H        31.2070107313       19.7927562689        1.5528750246
  H        32.8614030791       17.5031266782        1.5973376513
  H        28.9738631112       16.6626480053        1.0481889868
  H        32.1337030434       18.3784878220       15.0207802113
  H        18.8530485390        0.8689438412       12.3351058834
  H        40.5281783245       35.2288314618        3.9520108820
  H        42.3243791769       34.4191076241        3.5902828124
  H        22.0874688968        0.6920247295       12.3516535521
  H        11.5968066391       18.7131404420       12.3826964856
  H        52.2650398397       18.4313347833        3.6771613263
  H        49.2552976197       16.4770176742        3.5844797595
  H        10.1510098333       15.7981476872       12.2924857441
  H        50.8502749565       17.6924150392        3.9542164697
  H        10.0466043632       17.3944874416       12.0519537786
  H        20.2142977992        0.0021581301       12.0420356480
  H        39.1838853459       36.1244517241        3.6864717622
 Ni        30.9419636407       17.8243011658        2.9946894648
 Ni        31.3242108906       16.4689482607        0.1612280159
 Ni        29.7996107859       18.6317110934       -0.0012634931
 Ni        30.1825458816       17.3734468656       13.0023517096
  O        10.6499663765       14.3649796740        5.4858738205
  O        12.6130592603       14.6575282905        6.5840035604
  O        49.1481816041       16.8458542761        7.9897073750
  O        50.3503368658       20.9358301912        5.6480319525
  O        48.3486079571       20.5933634219        6.6658636604
  O        11.0519148129       17.0537661142        6.5007864680
  O        50.3210887481       20.8816863935       10.4068729568
  O        48.3467767968       20.5868132044        9.3271754354
  O        49.5442454672       18.2483477133       10.0682203665
  O        12.3592632133       18.6246452598        7.9995905922
  O        48.6932589642       14.1485236166        6.7513308208
  O         8.2099271042       14.2103874027        9.3225205044
  O        10.7354224854       14.5067437751       10.6642718057
  O        12.5718844577       14.5827361220        9.3284914420
  O        22.8445228868        2.0429388558        5.4871938605
  O        21.6058172532        3.5924624278        6.5893371971
  O        42.0581328789       34.1374334789        7.9789237835
  O        37.9813005935       33.1366349911        5.5724618344
  O        39.2173649061       31.5751988005        6.6660304766
  O        20.3084631731        1.0395528858        6.5021540502
  O        38.0245610732       33.1852913655       10.4155892520
  O        39.2185918291       31.5831780481        9.3272355572
  O        40.6521598624       33.7694065048       10.0601752080
  O        18.2556082101        1.3761588458        7.9967550635
  O        44.6222144568       35.1005510388        6.7587984430
  O        24.2054238150        0.0000446848        9.3207824851
  O        22.7529912281        2.0578184842       10.5839172818
  O        21.6245015220        3.5961338942        9.3429224362
  O        27.4931358914       18.7552617963        5.5005267480
  O        26.7649707190       16.9337536104        6.6550035173
  O        30.6697540390       19.4050578897        8.0587086289
  O        33.5884246239       16.2725439091        5.6675621164
  O        34.2777215668       18.1660110903        6.7323313214
  O        29.5734432632       17.0587162922        6.5849000931
  O        33.6263612189       16.3269029819       10.4063461572
  O        34.3103573796       18.2466075743        9.4021723830
  O        31.7095633647       18.3128856278       10.0903669386
  O        30.3202338245       15.1506875919        8.0865920242
  O        28.5525312223       21.0339692341        6.9002901288
  O        28.5125437933       20.9578748031        9.4116629174
  O        27.4602478134       18.6791958473       10.6585463830
  O        26.6948626246       16.9288098811        9.4132811178
  O        13.1489853042       18.6929767855       10.5874094935
  O        13.9195414709       16.9163382850        9.4050491230
  O        50.5965972993       19.3503309031        8.0203810995
  O        47.6839088273       16.3269734241       10.4171754756
  O        46.9526911615       18.1761207811        9.3240132509
  O        11.0700912679       17.0153333559        9.4896124153
  O        47.6764070431       16.3354576173        5.6532886193
  O        46.9280434769       18.2357818921        6.6651071600
  O        49.5688940797       18.3177728280        5.9823076661
  O        10.3188075683       15.1000797303        7.9971047912
  O        52.6708637368       21.0279899968        9.2418201509
  O        12.1468545492       20.8912102658        6.6732333980
  O        13.1085315646       18.6136881502        5.3255783066
  O        13.9573101380       16.9870864103        6.6654344715
  O        29.9962383188       14.4489204984       10.7335772401
  O        28.0906972629       14.6531548440        9.4966788362
  O        32.1436078969       16.8519553498        8.0723998196
  O        30.9663757426       20.9529176156       10.4075719345
  O        32.9474290768       20.6070310711        9.3361364924
  O        29.5727350761       17.0734737167        9.5739584272
  O        30.8493233051       20.8878074521        5.6568610692
  O        32.8697783284       20.5888152939        6.6627225893
  O        31.6835268658       18.2548906701        6.0174122569
  O        28.2831665763       18.6736672517        8.0756088972
  O        32.4939042854       14.2120912716        9.3266167147
  O        32.4068980878       14.2128073079        6.8262704716
  O        29.9213459369       14.4388395401        5.4928162487
  O        28.0398740841       14.5890579826        6.7529632751
  O        17.8893365031        1.9665972090       10.6628463032
  O        18.9562956481        3.5270960713        9.4079960533
  O        39.1686203465       34.1386311265        7.9970601296
  O        43.2802637618       33.0589086920       10.3318043970
  O        42.0343916494       31.5064357966        9.2416128090
  O        20.3176436406        1.0368645999        9.4800897754
  O        43.2760170102       33.1826514898        5.5750050034
  O        42.0052344290       31.5841831293        6.5829846297
  O        40.5788676183       33.7749158950        5.9358992296
  O        22.3673978001        1.3846423551        7.9979146930
  O        36.6728040995       35.0997190584        9.2332765639
  O        16.4456856116        0.0641993203        6.6682589386
  O        17.9364818114        2.0433167114        5.3264839498
  O        18.9190267660        3.5930488698        6.6659930665
  O        29.7824674445       18.7558291659        4.1477103230
  O        29.8722802813       18.8976170460       11.9316389903
  O        31.2990381838       16.4062833947        4.1613635627
  O        31.4664808669       16.4210109454       11.9909334325
  O        32.1146237384       16.9141066880        1.8140052339
  O        28.3524712033       17.4373032954        0.9900780053
  O        30.6264715826       15.9776298603       14.4055628142
  O        32.7397794831       17.5927304996       15.0770000062
  O        30.4570180935       19.1886030628        1.6809453196
  O        29.0254508153       18.3049982696       14.2674864046
  O        39.4568482560       35.2437271387        4.0019481434
  O        19.1409503000        0.0044000034       11.9905072266
  O        41.9694778069       35.1725697077        4.0871518720
  O        21.6911369151       -0.0693923406       11.8958995790
  O        51.3652104846       18.6143253841        4.0054022804
  O        10.7510866016       18.7471503609       11.9049575958
  O        50.0797731018       16.4127879463        4.0916483978
  O         9.5249981780       16.4829537980       11.9911386246
 Zr         9.2976414937       16.0526485359        6.1825165392
 Zr        49.8370673202       16.0065196240        9.7462654252
 Zr        22.0735149663        0.0303683774        6.1888104988
 Zr        42.4610916775       35.1539641284        9.8010718360
 Zr        29.5955617288       19.0804099763        6.3002702654
 Zr        29.5890373333       19.1781443950        9.8293950447
 Zr        11.0388498569       19.0516916609        9.8277701369
 Zr        11.0446523402       19.1546179346        6.2507918386
 Zr        31.3640625209       16.1033278267        9.8390412358
 Zr        31.3873670710       16.0147838190        6.2930529438
 Zr        18.6013208470       -0.0009458562        9.7631757058
 Zr        18.5068614651       -0.0072486900        6.2136528749
 Zr        12.3029800678       16.3235980535        7.9903572392
 Zr        48.6176249661       18.8332427843        8.0101553586
 Zr        20.3156898902        2.4742125548        7.9904351222
 Zr        40.6437281936       32.6874460618        7.9781015373
 Zr        28.3354304234       16.3317594707        8.0837299931
 Zr        32.6454260064       18.8418883132        8.0464474876
  H        32.7197285877       17.2215695298       14.1688443822
  H        28.2769678562       17.7449952193        1.9166993932
  H        30.7809969469       19.4665973637       -0.6825280610
  H        30.3597455611       15.6304448917        0.8701331747
