     576
 i =      106, E =     -4780.0820865512
  C        11.8588319126       14.0535009230        5.7415346085
  C        12.4563601234       12.8906127691        5.0232099872
  C        11.7045690067       12.1714622806        4.0817940504
  C        12.2809672847       11.1092600915        3.3894651661
  C        13.6216463763       10.7397082384        3.6169870698
  C        14.3549598577       11.4435742093        4.5901222179
  C        13.7820509451       12.5085558703        5.2816094165
  C        14.2611441540        9.6490004090        2.8436171613
  C        14.2563457443        9.6568463814        1.4219202180
  C        13.7431690331       10.7589768493        0.6680326785
  C        49.1269777453       21.2332025460        5.8796690762
  C        48.5502236314       22.4012224852        5.1525883203
  C        49.3002206107       23.0685032481        4.1715556487
  C        48.7332899322       24.1076715504        3.4383742890
  C        47.4027814426       24.5093523702        3.6670705730
  C        46.6718648720       23.8605283159        4.6806355985
  C        47.2343205919       22.8155997003        5.4099515845
  C        46.7724771025       25.5870321385        2.8698161719
  C        46.7612963713       25.5573541588        1.4480571754
  C        47.2611978504       24.4422411347        0.7045702105
  C        14.8603030786        8.5705188021        0.7086607802
  C        14.8919793889        8.5970972388        3.5202754417
  C        49.1133441681       21.2034238962       10.1453696474
  C        48.5279318617       22.3648143591       10.8726047329
  C        49.2670841484       23.0254455768       11.8656142322
  C        48.6907345934       24.0600125060       12.5970670718
  C        47.3603734344       24.4568674261       12.3587117087
  C        46.6400481658       23.8120647481       11.3350631681
  C        47.2136282527       22.7761550680       10.6033015486
  C        46.7218620307       25.5318237182       13.1497173308
  C        46.7334545687       25.5281343756       14.5714245276
  C        47.2488825929       24.4289173237       15.3278098678
  C        40.6361128839       17.1461055299       15.3229929757
  C        40.6572003443       17.1816258617       12.5141377561
  C        11.8831045256       14.0865396236       10.2855256549
  C        12.4724825883       12.9108337172       10.9898355878
  C        11.7148734708       12.1773996064       11.9156887117
  C        12.2814981625       11.0949562630       12.5840889677
  C        13.6204283338       10.7214757398       12.3524911807
  C        14.3585316057       11.4373271550       11.3920079442
  C        13.7930709968       12.5184888900       10.7193239530
  C        14.2539843424        9.6246665084       13.1228695852
  C        14.2525989579        9.6445574256       14.5447074350
  C        13.7426407935       10.7534663227       15.2917795304
  C        22.5126552378        3.2445297990        5.7530913043
  C        23.2288626092        4.3489589690        5.0539724695
  C        24.2251248129        4.0672813371        4.1073935488
  C        24.8539258021        5.1056636086        3.4252253812
  C        24.5025048379        6.4481848533        3.6693855606
  C        23.5346399637        6.7213377188        4.6532046430
  C        22.9010546141        5.6847779460        5.3337606880
  C        25.1098032321        7.5537882322        2.8934309748
  C        25.0803884105        7.5475486494        1.4719383908
  C        24.3761824093        6.5495866301        0.7259444103
  C        38.2986432341       31.9282488756        5.8519754342
  C        37.5581153737       30.8393787693        5.1499722973
  C        36.5935081109       31.1463189452        4.1778745540
  C        35.9643892483       30.1283483978        3.4663437055
  C        36.2845821621       28.7772453085        3.7039426413
  C        37.2184808387       28.4776645703        4.7137649579
  C        37.8516157100       29.4946803642        5.4246119098
  C        35.6753248270       27.6891765164        2.9045071546
  C        35.7163263623       27.7042160489        1.4828537701
  C        36.4307767804       28.7042071566        0.7502152227
  C        25.7036178485        8.6173049396        0.7519394886
  C        25.7097626575        8.6272713606        3.5639039730
  C        38.3308845451       31.9614381680       10.1599828486
  C        37.6144794419       30.8886239752       10.9097168236
  C        36.6824655996       31.1989153937       11.9120370202
  C        36.0729394728       30.1822978601       12.6453089241
  C        36.3804000772       28.8288928920       12.4001697100
  C        37.2933622598       28.5284242590       11.3705687358
  C        37.9048324109       29.5416233766       10.6385530796
  C        35.7652802351       27.7309219834       13.1820434515
  C        35.7620179264       27.7257289335       14.6045247783
  C        36.4513132768       28.7153248110       15.3735715775
  C        46.1354230802       26.6207653693       15.2815563678
  C        46.0879556172       26.5802136243       12.4736627990
  C        22.4612004016        3.2562977787       10.2579255733
  C        23.1553972358        4.3650518148       10.9806488245
  C        24.1575527464        4.0792077253       11.9215709946
  C        24.7857191334        5.1094217790       12.6173154615
  C        24.4321670875        6.4555425326       12.3951640590
  C        23.4530834041        6.7345632938       11.4227264181
  C        22.8202126932        5.7046246076       10.7274169732
  C        25.0635430561        7.5534948928       13.1694955233
  C        25.0573828895        7.5466402932       14.5924233269
  C        24.3633846246        6.5501356628       15.3490649117
  C        26.6210546224       17.8624748173        5.7842784121
  C        25.3152623646       17.9013345683        5.0565531973
  C        25.0535197992       18.8968976622        4.1019024854
  C        23.8410280966       18.9141361924        3.4150413057
  C        22.8523869911       17.9398230837        3.6618811313
  C        23.1106920848       16.9661166218        4.6451172285
  C        24.3257764206       16.9426763289        5.3285629258
  C        21.5786186427       17.9252558698        2.8982964322
  C        21.5789441863       17.9043555831        1.4757401112
  C        22.7845661297       17.7786807510        0.7156534986
  C        34.4406882584       17.1921205763        5.9170868044
  C        35.7311567071       17.1466873551        5.1705103370
  C        35.9333503991       16.1860229830        4.1674355850
  C        37.1138569479       16.1769746788        3.4302543818
  C        38.1242423294       17.1261724677        3.6785173280
  C        37.9247373841       18.0670148552        4.7064666147
  C        36.7408518071       18.0826389276        5.4396204355
  C        39.3790783344       17.1373391836        2.8945983602
  C        39.3760879694       17.1582539128        1.4733670123
  C        38.1699697640       17.2846425120        0.7147204673
  C        20.3323738304       17.9252730538        0.7671170244
  C        20.3537460439       17.9295770749        3.5806091796
  C        34.4811386159       17.2462679713       10.1793968375
  C        35.7813485542       17.1780518850       10.9065028891
  C        36.0025324917       16.1891891137       11.8766303942
  C        37.1875661719       16.1755551065       12.6063569493
  C        38.1799710367       17.1491519284       12.3827286085
  C        37.9659626322       18.1132707550       11.3805794397
  C        36.7780837572       18.1327329452       10.6550526145
  C        39.4263157776       17.1684675534       13.1780458740
  C        39.4001942742       17.1742157060       14.5985229026
  C        38.1810004830       17.2899065838       15.3379920264
  C        35.1219995410       26.6491032331       15.3042969357
  C        35.1782268225       26.6606256990       12.4948512896
  C        26.5744476184       17.8280416460       10.3265486244
  C        25.2594263197       17.8725949282       11.0324881245
  C        24.9959414017       18.8751942163       11.9779725386
  C        23.7779775170       18.8998622439       12.6516504229
  C        22.7940029494       17.9220884299       12.4030956167
  C        23.0517988205       16.9445003649       11.4250536401
  C        24.2706083634       16.9175292455       10.7499904818
  C        21.5301483685       17.9027232663       13.1757524140
  C        21.5539850345       17.8913160566       14.5973200800
  C        22.7722007220       17.7723863992       15.3391624255
  C        14.0472736798       17.8289497565       10.2889226496
  C        15.3518153553       17.8861920562       11.0138424018
  C        15.6083350251       18.8885060009       11.9625401345
  C        16.8174383030       18.9091285411       12.6553020166
  C        17.8047102089       17.9303852130       12.4217491714
  C        17.5529975977       16.9525858617       11.4406745511
  C        16.3433647015       16.9272761623       10.7495080003
  C        19.0737954406       17.9124753683       13.1909429314
  C        19.0724131570       17.9085357982       14.6135042775
  C        17.8653129398       17.8107969236       15.3747664058
  C        46.8072538226       17.2204478153       10.1596950341
  C        45.5198794440       17.1648813298       10.9086324322
  C        45.3130294924       16.1908353086       11.8973344710
  C        44.1333062728       16.1804955081       12.6363623564
  C        43.1322712291       17.1444305463       12.4074662310
  C        43.3367414184       18.0985873273       11.3927907812
  C        44.5169770071       18.1128102712       10.6549140738
  C        41.8797918701       17.1615068964       13.1950527446
  C        41.8838191066       17.1581883263       14.6165344782
  C        43.0920506783       17.2481163979       15.3769310705
  C        20.3191597583       17.9173582360       15.3220097791
  C        20.2981774072       17.8929444146       12.5089247428
  C        46.7859621085       17.2306093333        5.8907659922
  C        45.4817474909       17.1246820124        5.1781222479
  C        45.2629856327       16.1292461242        4.2140270904
  C        44.0746842705       16.1054962907        3.4883960065
  C        43.0767228129       17.0739156784        3.7108538524
  C        43.2849191711       18.0375452215        4.7150301969
  C        44.4744649293       18.0679990813        5.4352866459
  C        41.8323136035       17.1025933083        2.9123801410
  C        41.8598339610       17.1264487894        1.4919120331
  C        43.0806679843       17.2306718065        0.7534914290
  C        46.1532404570       26.6372187958        0.7263178551
  C        46.1626086836       26.6561919521        3.5359530378
  C        14.0460714117       17.8315249025        5.7084830088
  C        15.3671945795       17.9049600168        5.0180834389
  C        15.6417470175       18.9195002360        4.0887826025
  C        16.8709822427       18.9554800434        3.4341830884
  C        17.8537660204       17.9760113294        3.6826247246
  C        17.5861056356       16.9906683872        4.6504194555
  C        16.3589802370       16.9541826660        5.3086248365
  C        19.1211418660       17.9494259320        2.9136051838
  C        19.0972160857       17.9263065898        1.4920084058
  C        17.8774061686       17.8188409230        0.7510155490
  C        28.8139626805       14.0970424494       10.3961396389
  C        28.2004982766       12.9233805323       11.0841406740
  C        28.9269230033       12.1709142077       12.0189620835
  C        28.3267500900       11.0953077769       12.6692176327
  C        26.9861496906       10.7469069038       12.4074567867
  C        26.2810669757       11.4793547195       11.4358061712
  C        26.8786696411       12.5557319313       10.7850664326
  C        26.3169961538        9.6656116262       13.1672230296
  C        26.3065973264        9.6906482234       14.5882346357
  C        26.8124730187       10.8025277907       15.3337615459
  C        32.1799213687       21.2436320264       10.1453662566
  C        32.7737472790       22.4091108478       10.8668617855
  C        32.0215427506       23.0922567434       11.8349908321
  C        32.5903179342       24.1327572452       12.5635053651
  C        33.9275930014       24.5179445257       12.3464298995
  C        34.6626812835       23.8530726579       11.3467865267
  C        34.0959118459       22.8078729053       10.6194060554
  C        34.5541991655       25.5930642447       13.1499513816
  C        34.5334218736       25.5665640165       14.5717212621
  C        34.0141888873       24.4541131949       15.3066302516
  C        25.6963644492        8.6131096215       15.3070501962
  C        25.6786270169        8.6162031452       12.4934361958
  C        32.0763151239       21.2021502013        5.8746749402
  C        32.6462401108       22.3639861685        5.1290546779
  C        31.9084280222       23.0234650170        4.1336916181
  C        32.4820260512       24.0629949206        3.4030141319
  C        33.8069527839       24.4750201562        3.6498811406
  C        34.5256676707       23.8300769691        4.6747712031
  C        33.9578121809       22.7861477141        5.3995124439
  C        34.4486192717       25.5607103122        2.8712560093
  C        34.4776362218       25.5509707351        1.4493412997
  C        33.9860434292       24.4475717060        0.6831441481
  C        40.6235980029       17.1338201884        0.7669079210
  C        40.6010625273       17.1262466977        3.5760632195
  C        28.7490204504       14.0679855050        5.8183356638
  C        28.1387004098       12.9217842782        5.0798116230
  C        28.8732707880       12.2300047037        4.1047160224
  C        28.2939167022       11.1723444688        3.4076119011
  C        26.9634269444       10.7809556780        3.6593213519
  C        26.2457595543       11.4611092853        4.6609650853
  C        26.8238579963       12.5187169097        5.3604458111
  C        26.3215515242        9.6902634383        2.8866921964
  C        26.3094371335        9.7039153257        1.4647384636
  C        26.8109923705       10.8105044480        0.7097941807
  C        18.1354573606        3.1810595815       10.3171676522
  C        17.4062472360        4.2782639008       11.0157975511
  C        16.3904305556        3.9999405753       11.9432359951
  C        15.7427535160        5.0399443960       12.6067218082
  C        16.0947607408        6.3836636511       12.3671025321
  C        17.0842368094        6.6531470383       11.4034198878
  C        17.7332912733        5.6157855979       10.7383649458
  C        15.4704075447        7.4913404203       13.1301485473
  C        15.4855759830        7.4905549153       14.5518622203
  C        16.1871260723        6.4969350917       15.3050331427
  C        42.9458566333       31.8595895665       10.0728649993
  C        43.6462403647       30.7718876510       10.8168008396
  C        44.5914909205       31.0932342531       11.8031315452
  C        45.1972111173       30.0876958808       12.5508013473
  C        44.8710753618       28.7345933014       12.3357252671
  C        43.9455958018       28.4202378724       11.3221886507
  C        43.3367760706       29.4253681601       10.5741341608
  C        45.4886334478       27.6552887450       13.1389272015
  C        45.4927168500       27.6808890064       14.5606256352
  C        44.8056184471       28.6889156614       15.3072703842
  C        14.8565412759        8.5629997364       15.2642336308
  C        14.8752632077        8.5631904618       12.4515595337
  C        42.9464877913       31.9616871279        5.8089915863
  C        43.6917725427       30.8855494491        5.0955656963
  C        44.6561904849       31.1914765573        4.1230956175
  C        45.2777426618       30.1718955402        3.4053843431
  C        44.9542001253       28.8215503621        3.6431978875
  C        44.0210040566       28.5238799536        4.6542499345
  C        43.3927089104       29.5406323021        5.3664204669
  C        45.5631848247       27.7241401827        2.8579248850
  C        45.5333116787       27.7173887104        1.4366273695
  C        44.8269391207       28.7075776564        0.6836649341
  C        35.0960171781       26.6399419578        0.7495678083
  C        35.0592483995       26.6167601180        3.5599178744
  C        18.1486412999        3.2470431549        5.7065734815
  C        17.4300961889        4.3438264013        4.9973087879
  C        16.4147843924        4.0525801665        4.0738270035
  C        15.7664870851        5.0832302771        3.3984775356
  C        16.1212851157        6.4284555344        3.6211072691
  C        17.1128263376        6.7118118831        4.5782044995
  C        17.7604966460        5.6828841352        5.2579465513
  C        15.4907454397        7.5241349751        2.8486777646
  C        15.4965323340        7.5074256924        1.4275468935
  C        16.1933286571        6.5057474595        0.6808476110
  H        10.6723561490       12.4654079031        3.9049658794
  H        11.6946325054       10.5505808549        2.6631157900
  H        15.3921283033       11.1692979354        4.7715595279
  H        14.3516666645       13.0720620070        6.0167116581
  H        13.3761918596       11.6311071662        1.2013588480
  H        50.3229142644       22.7484256419        3.9867798201
  H        49.3197722526       24.6229184411        2.6807794256
  H        45.6424073246       24.1613723862        4.8638779494
  H        46.6633773264       22.2903619980        6.1720982137
  H        47.6298059113       23.5759011426        1.2462687617
  H        14.8724980598        8.5884632679        4.6085859944
  H        50.2871069614       22.7025401791       12.0605769963
  H        49.2691089213       24.5754151577       13.3606217381
  H        45.6107074931       24.1094382089       11.1458651088
  H        46.6529200983       22.2540867510        9.8315930927
  H        47.6077012767       23.5518162524       14.7969085667
  H        40.6643036850       17.1511476268       11.4262927792
  H        48.6871587491       14.0949744271        7.8000379588
  H        10.6813097509       12.4662664786       12.0928799703
  H        11.6896622809       10.5243524655       13.2965800415
  H        15.3941058737       11.1597712877       11.2063708902
  H        14.3655632886       13.0881379669        9.9911307321
  H        13.3759004887       11.6221135609       14.7531366770
  H        47.9302474786       14.2184924856        9.7108799758
  H        47.7801747271       14.3740489664        6.4953310177
  H        49.0851017854       18.5527810510       10.8676464446
  H        10.4163058218       14.1342540231        7.9986799391
  H        24.4842840224        3.0282697873        3.9164776434
  H        25.6264549645        4.8867892159        2.6912508507
  H        23.2559903368        7.7548247080        4.8483362166
  H        22.1315925260        5.8867207638        6.0749144121
  H        23.8146777848        5.7931521100        1.2664518169
  H        36.3618711921       32.1904789310        3.9813729555
  H        35.2174157641       30.3711887055        2.7137368724
  H        37.4738684840       27.4375049067        4.9054856038
  H        38.5983989341       29.2700596939        6.1825672128
  H        36.9936050089       29.4527886128        1.3001568766
  H        25.7464122297        8.6093579419        4.6516548550
  H        36.4551869515       32.2433820748       12.1132554365
  H        35.3436172551       30.4297453333       13.4135097100
  H        37.5445764972       27.4880679243       11.1747907258
  H        38.6305347220       29.3135457781        9.8616444506
  H        37.0307302971       29.4722333618       14.8526370746
  H        46.1095372075       26.5876840533       11.3856301672
  H        44.6683467988       35.1162517263        7.8139801971
  H        24.4351670440        3.0410115743       12.0891607837
  H        25.5664241112        4.8803791215       13.3395426496
  H        23.1682851828        7.7690532425       11.2417926242
  H        22.0486085827        5.9178180490        9.9912216118
  H        23.7914057219        5.7947458057       14.8180970525
  H        44.9539910053       34.3905848896        9.6953293441
  H        44.9020034712       34.2068844579        6.4906798390
  H        40.6667156606       33.2096087640       10.8534054516
  H        23.1503919039        1.9581081581        8.0053361203
  H        25.8113575401       19.6545919452        3.9158858530
  H        23.6437895343       19.6922991633        2.6807637101
  H        22.3598200478       16.2041492501        4.8442356917
  H        24.5355103041       16.1770284535        6.0718675801
  H        23.7256534116       17.6556425747        1.2439649879
  H        35.1497089785       15.4570122787        3.9755670553
  H        37.2703263620       15.4247235678        2.6602256598
  H        38.6976937529       18.8075488465        4.9014768585
  H        36.5695815416       18.8228897963        6.2177119946
  H        37.2298993689       17.4073245800        1.2447755694
  H        20.3606689604       17.9694172674        4.6684903480
  H        35.2287919875       15.4455578872       12.0522526279
  H        37.3590821127       15.4068340759       13.3566696278
  H        38.7274472741       18.8702553216       11.2046245777
  H        36.5896816827       18.8933937225        9.9011662087
  H        37.2493931779       17.4158728127       14.7936436465
  H        35.1602977166       26.6856642811       11.4069252449
  H        28.5018719766       21.0848210325        7.9681001828
  H        25.7586057258       19.6272448930       12.1670038850
  H        23.5737579103       19.6811472929       13.3805693935
  H        22.3004399282       16.1826989693       11.2273664296
  H        24.4854377115       16.1509585024       10.0093241189
  H        23.7038124634       17.6451167777       14.7958936355
  H        29.0036205384       21.7202821951        9.7621113107
  H        29.1626211826       21.7403571518        6.6236085662
  H        32.1493141058       18.5683403660       10.9189516076
  H        27.3991470658       19.0711873739        8.0856493103
  H        14.8496684646       19.6470677364       12.1418312460
  H        17.0123115946       19.6927058295       13.3843854999
  H        18.3046210455       16.1890288357       11.2509081970
  H        16.1379342695       16.1588366682       10.0080399446
  H        16.9226262971       17.6965842587       14.8475383594
  H        46.0935183672       15.4557593625       12.0792223704
  H        43.9716375575       15.4174772563       13.3945791506
  H        42.5711991332       18.8505680206       11.2132407028
  H        44.6928342711       18.8631996065        9.8877794638
  H        44.0345052044       17.3628603021       14.8491124526
  H        20.2924158831       17.9240781993       11.4208173371
  H        46.0401046936       15.3898730514        4.0342249274
  H        43.9072106772       15.3342351547        2.7397409713
  H        42.5183839539       18.7888625717        4.8929917890
  H        44.6582615470       18.8315273795        6.1871025971
  H        44.0144323908       17.3307508696        1.2991848239
  H        46.1996512928       26.6828198019        4.6233899339
  H        52.7413013168       21.0626507259        8.1947053124
  H        14.8819510282       19.6737295605        3.8960653200
  H        17.0826764807       19.7453488853        2.7166840950
  H        18.3360233547       16.2280744325        4.8503986426
  H        16.1374742576       16.1803065639        6.0395358865
  H        16.9437418550       17.7108497165        1.2947771130
  H        52.3226548813       21.6733285040        6.2941713904
  H        52.0132443253       21.7020500255        9.4956149534
  H        49.0678986085       18.6077152475        5.2039785220
  H        13.2479548692       19.0159373231        7.9772810565
  H        29.9609978999       12.4418376387       12.2200881660
  H        28.8915225656       10.5115218433       13.3929296818
  H        25.2451220342       11.2206201288       11.2265301886
  H        26.3315701819       13.1419974979       10.0509146649
  H        27.1755886912       11.6711807006       14.7929277561
  H        30.9944162754       22.7825330868       12.0120577579
  H        32.0009952342       24.6615952412       13.3094254498
  H        35.6977526347       24.1402665178       11.1731544348
  H        34.6693901396       22.2699018884        9.8680175342
  H        33.6612151325       23.5857691231       14.7577588005
  H        25.7067011365        8.5982959345       11.4053408600
  H        30.8864382735       22.7054217154        3.9395493077
  H        31.9019742043       24.5742006472        2.6376470731
  H        35.5509061183       24.1359221736        4.8728216863
  H        34.5200664599       22.2676772955        6.1724327070
  H        33.6114928813       23.5737996781        1.2085051125
  H        40.5924288183       17.0816349554        4.6634386936
  H        32.5108287252       14.1403820163        8.2438884406
  H        29.8991709811       12.5351497951        3.9113800273
  H        28.8717998271       10.6315985812        2.6612278747
  H        25.2161189081       11.1722837714        4.8618596251
  H        26.2662916167       13.0592524201        6.1216314503
  H        27.1717290202       11.6855524237        1.2424845674
  H        33.3102723347       14.2261994866        6.4678265885
  H        33.4116648655       14.4022731539        9.5958449884
  H        32.1034900892       18.4943735044        5.1738916212
  H        30.2214178630       14.1857401346        8.0769982262
  H        16.1182865516        2.9634552653       12.1296038955
  H        14.9532447322        4.8206203688       13.3223325421
  H        17.3668203255        7.6859991026       11.2103983355
  H        18.5154374157        5.8184622110       10.0106414941
  H        16.7538111116        5.7396839303       14.7715446303
  H        44.8275812945       32.1403340480       11.9774855956
  H        45.9368970700       30.3415034330       13.3069047965
  H        43.6832462421       27.3781271030       11.1517935909
  H        42.6005203903       29.1900066804        9.8091289441
  H        44.2303043120       29.4367210255       14.7689781192
  H        14.8516818555        8.5465549973       11.3633338984
  H        44.8995780199       32.2341681901        3.9314970481
  H        46.0245010756       30.4131627635        2.6520127178
  H        43.7643311151       27.4841232054        4.8460528107
  H        42.6464517783       29.3178264499        6.1251004227
  H        44.2685010782       29.4705181394        1.2182442763
  H        35.0104125346       26.6286673811        4.6471745419
  H        36.6052866941       35.1340928992        8.1806030873
  H        16.1435883364        3.0130222242        3.9041908191
  H        14.9740773027        4.8564448652        2.6884699641
  H        17.3965358097        7.7472523314        4.7549362165
  H        18.5435533891        5.8933696676        5.9825044297
  H        16.7648651198        5.7555809947        1.2192790850
  H        36.2788733413       34.4823243045        6.2731023680
  H        36.3811748154       34.2089605053        9.4993878044
  H        40.5796198703       33.2022026377        5.1538224294
  H        17.4710621566        1.9474967465        7.9740904002
  H        29.1815674985       19.3148533576       12.5310475770
  H        29.5078128385       19.5028695918        3.5857407693
  H        31.8028768065       15.8093124041        3.5823653751
  H        31.4554990163       15.6327304775       12.4958314006
  H        28.2547260490       17.7346726650       14.4975028365
  H        29.7844992115       15.3776186946       14.4934115707
  H        31.2083985276       19.8060119350        1.5746385691
  H        32.8312889953       17.4156650815        1.5769805736
  H        28.9871353778       16.6739858371        1.0264655774
  H        32.0587925103       18.3896917815       15.0472965086
  H        18.8530751992        0.8689685984       12.3350973113
  H        40.5281736107       35.2288268832        3.9520135381
  H        42.3243892280       34.4191208373        3.5902788488
  H        22.0875384820        0.6920443151       12.3516669115
  H        11.5968383171       18.7129692079       12.3826551814
  H        52.2650873009       18.4313572768        3.6771973283
  H        49.2553401118       16.4770606396        3.5844936374
  H        10.1503728213       15.7981696618       12.2927817486
  H        50.8503250219       17.6924257024        3.9542080503
  H        10.0463110290       17.3944879586       12.0519353066
  H        20.2143103432        0.0021908661       12.0420369093
  H        39.1838634158       36.1244549251        3.6864811498
 Ni        30.9418997338       17.8213674249        2.9943867038
 Ni        31.2419392052       16.4627759170        0.1608218273
 Ni        29.8008944852       18.6749384234       -0.0000364838
 Ni        30.1380987759       17.3595666558       13.0050434813
  O        10.6499711066       14.3650690986        5.4858362326
  O        12.6131845972       14.6574902619        6.5838929114
  O        49.1481824094       16.8458471182        7.9897036891
  O        50.3503259332       20.9358329381        5.6480022523
  O        48.3486023391       20.5933596769        6.6658724860
  O        11.0519076154       17.0537622167        6.5007470117
  O        50.3210912994       20.8816870823       10.4068666586
  O        48.3467884272       20.5868105977        9.3271657331
  O        49.5442997267       18.2484605740       10.0682025423
  O        12.3592647244       18.6246472562        7.9996874876
  O        48.6932814390       14.1485413198        6.7513089283
  O         8.2099229649       14.2103601937        9.3225302105
  O        10.7354159427       14.5067282688       10.6643046977
  O        12.5718503099       14.5828090693        9.3284940131
  O        22.8445577214        2.0429962120        5.4872190777
  O        21.6058307960        3.5923792028        6.5894000845
  O        42.0581423240       34.1373993233        7.9789877657
  O        37.9812592468       33.1366068281        5.5724055826
  O        39.2173897500       31.5751117640        6.6660049320
  O        20.3084304717        1.0395879255        6.5021607318
  O        38.0245040511       33.1852523396       10.4156056798
  O        39.2185956835       31.5831424062        9.3272507985
  O        40.6522599240       33.7694055156       10.0601806273
  O        18.2556075394        1.3761271202        7.9967471676
  O        44.6222232741       35.1005482730        6.7587964204
  O        24.2053849790        0.0000272835        9.3207869041
  O        22.7530061085        2.0579668726       10.5839249226
  O        21.6245790416        3.5962134807        9.3429155244
  O        27.4935281296       18.7554645966        5.5007417193
  O        26.7651099859       16.9339335063        6.6551843103
  O        30.6682849576       19.4053621997        8.0642618058
  O        33.5885468358       16.2727616818        5.6681398408
  O        34.2770495262       18.1665466762        6.7332045709
  O        29.5735110565       17.0588114674        6.5853456517
  O        33.6234680496       16.3268757676       10.4085195468
  O        34.3096258564       18.2458010349        9.4030613879
  O        31.7076244023       18.3152086561       10.0921258771
  O        30.3202700796       15.1518296498        8.0863761882
  O        28.5525767536       21.0337834685        6.9012223439
  O        28.5133988249       20.9565660135        9.4127441004
  O        27.4612647913       18.6791079311       10.6591265290
  O        26.6950637182       16.9290271529        9.4135917343
  O        13.1490174185       18.6928747078       10.5874731147
  O        13.9195649617       16.9162726080        9.4051369017
  O        50.5965828925       19.3503087705        8.0203931122
  O        47.6837344837       16.3269601903       10.4172421745
  O        46.9526313330       18.1761364028        9.3240009922
  O        11.0701140530       17.0153516746        9.4896186263
  O        47.6763345064       16.3354736876        5.6531986811
  O        46.9280319206       18.2358107532        6.6650684452
  O        49.5689462143       18.3177209419        5.9822574275
  O        10.3187556924       15.1000834639        7.9970568767
  O        52.6707860427       21.0278867505        9.2418156115
  O        12.1468656978       20.8912095293        6.6732440890
  O        13.1085045696       18.6135828268        5.3255692695
  O        13.9572730407       16.9870547028        6.6653922582
  O        29.9976425137       14.4516504383       10.7335940608
  O        28.0912451044       14.6534192574        9.4968146038
  O        32.1432964978       16.8525129878        8.0728522098
  O        30.9656590480       20.9520075077       10.4089136462
  O        32.9467362345       20.6081283910        9.3366553504
  O        29.5722765350       17.0749600307        9.5745840021
  O        30.8494265939       20.8880602987        5.6572470901
  O        32.8698007670       20.5889779813        6.6629858142
  O        31.6832714467       18.2551036824        6.0184475619
  O        28.2853271887       18.6743466495        8.0779170747
  O        32.4936171343       14.2124065393        9.3267899430
  O        32.4068180867       14.2129320339        6.8262508725
  O        29.9215985303       14.4389052069        5.4926347460
  O        28.0400519901       14.5890241985        6.7528953277
  O        17.8892583798        1.9665999762       10.6627831680
  O        18.9562523710        3.5271144933        9.4079489653
  O        39.1685770337       34.1386929061        7.9971190081
  O        43.2801913377       33.0589630386       10.3316972423
  O        42.0344007479       31.5064741985        9.2416257126
  O        20.3176878370        1.0368433986        9.4800730882
  O        43.2760694411       33.1826143410        5.5748820471
  O        42.0052197178       31.5841331195        6.5829683644
  O        40.5789350441       33.7749493618        5.9358874224
  O        22.3673709632        1.3847220181        7.9979609094
  O        36.6727943891       35.0997298325        9.2332798220
  O        16.4456738540        0.0642118112        6.6682668240
  O        17.9365233428        2.0433319315        5.3264078603
  O        18.9190822314        3.5931084205        6.6659379967
  O        29.7851778301       18.7560548684        4.1487712358
  O        29.8709070556       18.9003039265       11.9732514121
  O        31.2972447624       16.4080907662        4.1636876202
  O        31.4336547041       16.4711226460       11.9902493580
  O        32.0675404916       16.8523525209        1.8052500659
  O        28.3530867594       17.4427132005        0.9882309866
  O        30.5443493191       15.9757080074       14.3988574981
  O        32.6566282066       17.5941705895       15.0773313591
  O        30.4616870851       19.1942384407        1.6841726772
  O        29.0209637136       18.3071535227       14.3030272274
  O        39.4568399601       35.2437290565        4.0019480115
  O        19.1409748769        0.0044074691       11.9905441445
  O        41.9694980808       35.1725958991        4.0871367588
  O        21.6911957449       -0.0693722743       11.8959219489
  O        51.3652467583       18.6143266675        4.0054266914
  O        10.7511257361       18.7471190000       11.9049181536
  O        50.0798147853       16.4127898833        4.0916573810
  O         9.5245449849       16.4830418688       11.9912041307
 Zr         9.2976137134       16.0526733196        6.1825042224
 Zr        49.8370262811       16.0065544644        9.7462634819
 Zr        22.0735058358        0.0303634288        6.1888519879
 Zr        42.4610947484       35.1540244671        9.8010907787
 Zr        29.5963447213       19.0810895318        6.3030240316
 Zr        29.5883102237       19.1762490875        9.8436530515
 Zr        11.0388681172       19.0517032647        9.8277821996
 Zr        11.0446705582       19.1546396635        6.2508348788
 Zr        31.3633898605       16.1067230479        9.8363536794
 Zr        31.3873931798       16.0146764692        6.2923213083
 Zr        18.6013546417       -0.0009327436        9.7632385259
 Zr        18.5068488601       -0.0072881192        6.2136394240
 Zr        12.3030142850       16.3235890313        7.9903319006
 Zr        48.6176230233       18.8332339270        8.0101329505
 Zr        20.3156682296        2.4742399735        7.9904991669
 Zr        40.6436843366       32.6874612470        7.9780756450
 Zr        28.3349499043       16.3327540329        8.0828283621
 Zr        32.6433828527       18.8440339820        8.0472230168
  H        32.6148913114       17.2451400191       14.1605724224
  H        28.2823457963       17.7338933616        1.9203563247
  H        30.7557142062       19.5364608540       -0.6797356705
  H        30.2936274157       15.6072420696        0.8670049445
