     566
 i =      121, E =     -4712.2199299561
  C        11.8586718099       14.0536760476        5.7417605654
  C        12.4561181587       12.8906117736        5.0235056208
  C        11.7046141415       12.1724664478        4.0810958671
  C        12.2807868810       11.1102239170        3.3886275736
  C        13.6210443860       10.7395715148        3.6168744905
  C        14.3539489855       11.4422691724        4.5912134619
  C        13.7812370098       12.5072388912        5.2828956307
  C        14.2604055738        9.6488498689        2.8434143335
  C        14.2555179431        9.6566228261        1.4216884879
  C        13.7422646160       10.7586208011        0.6676541356
  C        49.1266400805       21.2332914161        5.8797391007
  C        48.5498650968       22.4010350030        5.1525840308
  C        49.2999642792       23.0685477288        4.1717481835
  C        48.7330042690       24.1076710258        3.4385783876
  C        47.4023590429       24.5091121089        3.6670260200
  C        46.6713218455       23.8600214836        4.6803409653
  C        47.2337839586       22.8151063813        5.4096587035
  C        46.7721652332       25.5868248054        2.8697449667
  C        46.7613398145       25.5572682302        1.4479834665
  C        47.2612365476       24.4421491439        0.7045084699
  C        14.8593066683        8.5701745545        0.7084381847
  C        14.8911473102        8.5968437404        3.5200513526
  C        49.1131196772       21.2034371751       10.1453226853
  C        48.5277386248       22.3647005111       10.8724652724
  C        49.2669467882       23.0254965824       11.8653561274
  C        48.6905616744       24.0599963694       12.5968163230
  C        47.3601058607       24.4566830573       12.3586202060
  C        46.6397095714       23.8116997217       11.3351300062
  C        47.2133075184       22.7758305791       10.6033428744
  C        46.7216769687       25.5316373102       13.1496533748
  C        46.7335602265       25.5280542254       14.5713537786
  C        47.2489512091       24.4288286476       15.3277450088
  C        40.6155119352       17.1486689758       15.3158839212
  C        40.6344597146       17.2026737895       12.5059106753
  C        11.8826448077       14.0864675807       10.2853990965
  C        12.4713041807       12.9099265540       10.9889620124
  C        11.7137788279       12.1776341434       11.9158176299
  C        12.2798955222       11.0949806173       12.5843155319
  C        13.6182906282       10.7200719443       12.3518454702
  C        14.3560429815       11.4344178714       11.3899286239
  C        13.7911140127       12.5158277984       10.7171964434
  C        14.2517982642        9.6234239530       13.1224797251
  C        14.2509455975        9.6437325324       14.5443422882
  C        13.7413207062       10.7528158242       15.2913880282
  C        22.5147741708        3.2425217747        5.7572753086
  C        23.2390413139        4.3451589573        5.0650534787
  C        24.2473204035        4.0596833519        4.1327797809
  C        24.8827198744        5.0955562365        3.4535399033
  C        24.5241803369        6.4376383022        3.6870804183
  C        23.5455648431        6.7151565078        4.6584776980
  C        22.9060257469        5.6810033844        5.3366486972
  C        25.1305362174        7.5402588073        2.9077004196
  C        25.0947731141        7.5305079459        1.4869441859
  C        24.3919901953        6.5261727646        0.7487878097
  C        38.2992858750       31.9290382820        5.8515154989
  C        37.5609632604       30.8414218814        5.1485383160
  C        36.5983942034       31.1487440942        4.1743837026
  C        35.9714043104       30.1310535149        3.4612690843
  C        36.2914822034       28.7799012171        3.6994997772
  C        37.2234649673       28.4802560525        4.7113791490
  C        37.8546893771       29.4968143261        5.4236705860
  C        35.6830238586       27.6913841949        2.9023129914
  C        35.7132972285       27.7089198833        1.4795608907
  C        36.4183661668       28.7105957916        0.7417072657
  C        25.7080911681        8.6022797934        0.7617568559
  C        25.7299296940        8.6159157886        3.5729119479
  C        38.3260184868       31.9602022386       10.1582695868
  C        37.5984018515       30.8901655821       10.9019107453
  C        36.6729267842       31.2050537285       11.9096516569
  C        36.0539384273       30.1922670234       12.6404842051
  C        36.3428964237       28.8354539122       12.3888764064
  C        37.2463396609       28.5308975436       11.3512197290
  C        37.8682986410       29.5404220994       10.6219909381
  C        35.7251866285       27.7405981540       13.1746838140
  C        35.7345268685       27.7341991909       14.5990432742
  C        36.4284177893       28.7228312956       15.3638959456
  C        46.1356070732       26.6207271411       15.2814725230
  C        46.0876160746       26.5799204874       12.4735854146
  C        22.4559441770        3.2518303855       10.2586294804
  C        23.1426540565        4.3571467029       10.9894883724
  C        24.1474528420        4.0662943865       11.9254575803
  C        24.7714271613        5.0930095909       12.6287031691
  C        24.4084318389        6.4375350813       12.4168483895
  C        23.4241611448        6.7218592146       11.4518241240
  C        22.7962846968        5.6954878914       10.7484223626
  C        25.0411654542        7.5333527304       13.1887179452
  C        25.0496500053        7.5260278700       14.6107304831
  C        24.3685852481        6.5250628722       15.3724111427
  C        26.5464219896       17.8291263028        5.7843567719
  C        25.2475459565       17.8948545014        5.0663197027
  C        25.0035398876       18.9052009064        4.1214259864
  C        23.7973328528       18.9402901465        3.4278622505
  C        22.8009432274       17.9682929622        3.6534238393
  C        23.0400530801       16.9828834388        4.6306734474
  C        24.2472465999       16.9424073210        5.3245504851
  C        21.5410991239       17.9678018560        2.8722049777
  C        21.5620532003       17.9960692987        1.4497798368
  C        22.7778650203       17.8949356692        0.7039898996
  C        34.4433216927       17.1895905784        5.9524414178
  C        35.7285989288       17.1409284192        5.2003344789
  C        35.9170916178       16.1897756996        4.1846099621
  C        37.0914586490       16.1816044651        3.4366279001
  C        38.1126354411       17.1200693979        3.6855563608
  C        37.9259846878       18.0507611979        4.7262927948
  C        36.7476765761       18.0679805973        5.4687225989
  C        39.3646581857       17.1312485697        2.8940553301
  C        39.3592807574       17.1555930520        1.4712924908
  C        38.1532814970       17.2902877675        0.7141726971
  C        20.3254072771       18.0352560495        0.7255105175
  C        20.3080663607       17.9381451573        3.5374938398
  C        34.4686949542       17.2904816973       10.1460180105
  C        35.7650120608       17.2241976203       10.8738897447
  C        35.9671886540       16.2467189340       11.8611368651
  C        37.1472268143       16.2289050190       12.5987767333
  C        38.1564359407       17.1847886779       12.3696254185
  C        37.9589462731       18.1380140338       11.3518617385
  C        36.7754366283       18.1643254838       10.6183171536
  C        39.4021083354       17.1935464896       13.1697316584
  C        39.3781584705       17.1883671160       14.5922647840
  C        38.1621719497       17.3053834593       15.3366890451
  C        35.1036489655       26.6552489860       15.3046062287
  C        35.1257034975       26.6731121730       12.4933361150
  C        26.6630055582       17.9081313638       10.3983164533
  C        25.3473703780       18.0352212260       11.0785500866
  C        25.1141289413       19.0157303049       12.0564494989
  C        23.8796874798       19.0788824609       12.7006604427
  C        22.8500259539       18.1623084921       12.3972355181
  C        23.0804027553       17.2167161321       11.3800680777
  C        24.3098689648       17.1507403772       10.7334754010
  C        21.5748010665       18.1397808863       13.1517521466
  C        21.5786348573       18.0849101275       14.5734727843
  C        22.7852849508       17.9381988578       15.3283950523
  C        14.0559772739       17.8441120133       10.2780882926
  C        15.3749502400       17.9455629880       10.9778730979
  C        15.6214760085       18.9771617065       11.8984105321
  C        16.8387670162       19.0450051111       12.5743681118
  C        17.8474952849       18.0851471919       12.3540580652
  C        17.6075913196       17.0804910764       11.3971076093
  C        16.3890426439       17.0084402310       10.7216261186
  C        19.1149600221       18.1008620770       13.1318959997
  C        19.0952487273       18.0682847407       14.5552965790
  C        17.8793069520       17.9391263021       15.2971406887
  C        46.8027066838       17.2205188404       10.1600380056
  C        45.5112452345       17.1652161688       10.9047729264
  C        45.2957411871       16.1897738051       11.8908421635
  C        44.1122057830       16.1806975074       12.6249217338
  C        43.1128967938       17.1475760154       12.3967113450
  C        43.3258620414       18.1023090423       11.3836310298
  C        44.5095286965       18.1149522222       10.6500971140
  C        41.8585808414       17.1690237479       13.1844875431
  C        41.8627587818       17.1582504117       14.6070735780
  C        43.0718583415       17.2403024187       15.3664530545
  C        20.3325354874       18.0756480661       15.2806545797
  C        20.3491365642       18.1244246919       12.4682812270
  C        46.7829684885       17.2314151861        5.8872306397
  C        45.4789346214       17.1260059052        5.1712916373
  C        45.2594269891       16.1308315392        4.2062886962
  C        44.0701275692       16.1045615247        3.4812871933
  C        43.0685139258       17.0702141693        3.7028340425
  C        43.2785413713       18.0346502941        4.7066319567
  C        44.4689257940       18.0675574902        5.4266044611
  C        41.8207708264       17.0959189405        2.9061407999
  C        41.8439136627       17.1187821014        1.4845145700
  C        43.0628583857       17.2201694466        0.7433821132
  C        46.1533761913       26.6371671206        0.7262260842
  C        46.1620877334       26.6558752219        3.5358705745
  C        14.0397162588       17.8260463896        5.7012615837
  C        15.3489355394       17.8921638310        4.9885154752
  C        15.6126003368       18.9173240790        4.0676868376
  C        16.8316821075       18.9588071203        3.3955434432
  C        17.8146296031       17.9738905925        3.6183018843
  C        17.5545881985       16.9711265229        4.5705860620
  C        16.3376312767       16.9297897453        5.2472013047
  C        19.0850669137       17.9733203362        2.8554784987
  C        19.0804755720       18.0008189911        1.4333431934
  C        17.8720912145       17.9094490273        0.6736154255
  C        28.7563538030       14.0381329519       10.3457729561
  C        28.1468507675       12.8640166540       11.0233839036
  C        28.8776969897       12.1437457561       11.9811306530
  C        28.2829620847       11.0829422626       12.6565852851
  C        26.9460292445       10.7194698974       12.3966800069
  C        26.2390522254       11.4172740010       11.4009221521
  C        26.8299907656       12.4809551920       10.7248368786
  C        26.2856587680        9.6476776595       13.1722656424
  C        26.2883299681        9.6763920264       14.5929824510
  C        26.7914567365       10.7932776320       15.3325233486
  C        32.1077390058       21.2311837924       10.2256190067
  C        32.6921074496       22.3964529929       10.9374110100
  C        31.9679426484       23.0596768230       11.9416093697
  C        32.5453911883       24.1139264834       12.6419129578
  C        33.8631580370       24.5317777007       12.3658377022
  C        34.5647228467       23.8884589075       11.3274473587
  C        33.9906835635       22.8324681370       10.6252006494
  C        34.5068853679       25.6053972953       13.1546455084
  C        34.5117585217       25.5711642279       14.5775365827
  C        34.0233978402       24.4479086945       15.3153942291
  C        25.6898354461        8.5963590173       15.3177943540
  C        25.6449207719        8.5961729668       12.5057959034
  C        32.0710591502       21.1907758889        5.8424913684
  C        32.6496559369       22.3553467622        5.1131733519
  C        31.9307745922       22.9959500950        4.0915433784
  C        32.5082088266       24.0414945411        3.3748610311
  C        33.8198172581       24.4752824789        3.6552714715
  C        34.5182883918       23.8489258914        4.7061255455
  C        33.9455903863       22.8010684057        5.4210444151
  C        34.4645304955       25.5582292047        2.8777437963
  C        34.4891404712       25.5476748323        1.4545207209
  C        34.0113712876       24.4368932699        0.6923961470
  C        40.6057234091       17.1300294410        0.7613185511
  C        40.5899241386       17.1196581014        3.5716549468
  C        28.7497352361       14.0531716752        5.8105546181
  C        28.1397924618       12.9113291953        5.0796412559
  C        28.8682904180       12.2437590221        4.0827467388
  C        28.2925435735       11.1852793142        3.3864840881
  C        26.9731456507       10.7711101282        3.6597417505
  C        26.2632538547       11.4272997950        4.6828600500
  C        26.8369879130       12.4855417240        5.3830240701
  C        26.3334628510        9.6798161740        2.8899922605
  C        26.3123249271        9.6936172546        1.4682925635
  C        26.7992875245       10.8036558219        0.7086534162
  C        18.1351430739        3.1805782771       10.3170590742
  C        17.4054706816        4.2777395183       11.0157087270
  C        16.3900161988        3.9990505746       11.9433821103
  C        15.7418776177        5.0388132697       12.6068494280
  C        16.0931580349        6.3826396371       12.3669703212
  C        17.0822504996        6.6524948653       11.4030049095
  C        17.7317244916        5.6153556301       10.7379936289
  C        15.4685482281        7.4902182717       13.1299715445
  C        15.4841810596        7.4898585022       14.5516885894
  C        16.1860478003        6.4964792983       15.3048747514
  C        42.9457529246       31.8592781476       10.0728390393
  C        43.6460955250       30.7716106350       10.8167844382
  C        44.5918909489       31.0929392215       11.8026049322
  C        45.1975853588       30.0873995594       12.5502766567
  C        44.8708906264       28.7343663761       12.3356462283
  C        43.9447674497       28.4200210884       11.3227162880
  C        43.3359297863       29.4251560492       10.5746785813
  C        45.4885180969       27.6551017287       13.1388496979
  C        45.4928582791       27.6808248193       14.5605441210
  C        44.8057997189       28.6888984696       15.3071504024
  C        14.8552002465        8.5623973677       15.2639830930
  C        14.8728976661        8.5617231620       12.4513140934
  C        42.9463231693       31.9613761603        5.8090399565
  C        43.6914070835       30.8852393197        5.0954173927
  C        44.6563417083       31.1911483503        4.1234536122
  C        45.2778529106       30.1715691468        3.4057119057
  C        44.9537339918       28.8212797095        3.6430244164
  C        44.0198036494       28.5235987932        4.6533740432
  C        43.3915485639       29.5403635197        5.3655663728
  C        45.5628802194       27.7239095418        2.8578063983
  C        45.5333554768       27.7172984439        1.4365046606
  C        44.8270672197       28.7075402302        0.6835437552
  C        35.0922774813       26.6425571126        0.7503923415
  C        35.0752603958       26.6168721865        3.5617763867
  C        18.1483459597        3.2467808466        5.7065916623
  C        17.4295470245        4.3436616491        4.9973007617
  C        16.4144966842        4.0523161629        4.0736021948
  C        15.7660659603        5.0828911400        3.3981949645
  C        16.1204782304        6.4281751001        3.6209999868
  C        17.1116373361        6.7116283018        4.5784647078
  C        17.7594012564        5.6827677810        5.2582519859
  C        15.4899444548        7.5238578183        2.8485148214
  C        15.4957263119        7.5071926899        1.4273630717
  C        16.1925000830        6.5054855635        0.6806876034
  H        10.6727205536       12.4671803023        3.9036449401
  H        11.6945031076       10.5523098738        2.6616473151
  H        15.3906445243       11.1668225225        4.7735855594
  H        14.3504212010       13.0695846731        6.0192288471
  H        13.3753607536       11.6308665400        1.2008373498
  H        50.3227358035       22.7486626908        3.9871226388
  H        49.3194593169       24.6230543332        2.6810616506
  H        45.6417043553       24.1605072257        4.8632723483
  H        46.6626201612       22.2896499294        6.1714901842
  H        47.6295616727       23.5756778657        1.2461880441
  H        14.8714327511        8.5880470559        4.6083586625
  H        50.2870017388       22.7026944978       12.0602578021
  H        49.2688638211       24.5754618918       13.3603756063
  H        45.6102417793       24.1087864905       11.1461760020
  H        46.6524066249       22.2536088287        9.8318768540
  H        47.6075010234       23.5515946498       14.7968840301
  H        40.6405699883       17.1784907797       11.4178424727
  H        48.6866354516       14.0950209424        7.7996967827
  H        10.6806457683       12.4675783574       12.0937824529
  H        11.6880519995       10.5253695193       13.2976001013
  H        15.3910654856       11.1554735136       11.2032899646
  H        14.3633921029       13.0843925611        9.9879899213
  H        13.3742962550       11.6213262671       14.7527185715
  H        47.9299246764       14.2181838544        9.7111247307
  H        47.7799888335       14.3736902347        6.4946378697
  H        49.0831821108       18.5518584788       10.8672355556
  H        10.4157909547       14.1343948627        7.9987961399
  H        24.5091545954        3.0199121362        3.9499999232
  H        25.6636430577        4.8753655729        2.7288735327
  H        23.2629028272        7.7493087291        4.8439434368
  H        22.1274584337        5.8840997919        6.0678911504
  H        23.8402705767        5.7667325856        1.2950261523
  H        36.3666894823       32.1929153580        3.9782064329
  H        35.2253385747       30.3735335006        2.7077089354
  H        37.4786849032       27.4400138406        4.9027476032
  H        38.6001190738       29.2724312653        6.1829861363
  H        36.9843201013       29.4602926967        1.2869365415
  H        25.7725441348        8.5995997192        4.6604301786
  H        36.4586901986       32.2509043667       12.1178940813
  H        35.3315922641       30.4459787667       13.4132108037
  H        37.4842722304       27.4887933786       11.1481466141
  H        38.5874624625       29.3061230631        9.8407443761
  H        37.0031715567       29.4813222058       14.8403143990
  H        46.1088024535       26.5872168956       11.3855458110
  H        44.6681512569       35.1160469823        7.8139915123
  H        24.4301881851        3.0277502403       12.0814692416
  H        25.5565013068        4.8636050116       13.3460059021
  H        23.1337360719        7.7567632391       11.2828933755
  H        22.0211906768        5.9088822770       10.0160434394
  H        23.7981627180        5.7653662520       14.8458957502
  H        44.9537288680       34.3899719878        9.6946385061
  H        44.9016029852       34.2065184202        6.4907920322
  H        40.6647844604       33.2079350106       10.8525552518
  H        23.1503641497        1.9567920016        8.0064426004
  H        25.7692109530       19.6568039135        3.9438966171
  H        23.6118347149       19.7284947323        2.7015231824
  H        22.2821841347       16.2235588984        4.8121649337
  H        24.4439248963       16.1646852813        6.0585829513
  H        23.7115410456       17.7458685638        1.2387311528
  H        35.1258628842       15.4702006552        3.9872784158
  H        37.2333229558       15.4372525347        2.6561551369
  H        38.7044285138       18.7849466690        4.9233736109
  H        36.5890916655       18.8047306429        6.2527658815
  H        37.2138448165       17.4147193229        1.2453058005
  H        20.2994274279       17.9421820717        4.6260238649
  H        35.1780463870       15.5228514226       12.0515246392
  H        37.3001773929       15.4687322172       13.3616478915
  H        38.7304435113       18.8832221028       11.1693929371
  H        36.6049860982       18.9194319931        9.8545125474
  H        37.2293209318       17.4413673874       14.7968778138
  H        35.0928645957       26.7019181958       11.4057526393
  H        28.4836518258       21.1770652684        7.7566035176
  H        25.9113162965       19.7149102159       12.3009833505
  H        23.7015852877       19.8417169410       13.4555194966
  H        22.2976322774       16.5017746636       11.1353698396
  H        24.4987930397       16.4004069507        9.9702289705
  H        23.7253904926       17.8214274897       14.7977631443
  H        28.9101118913       21.8431404066        9.7356751346
  H        29.1965117300       21.7188620269        6.4277318009
  H        32.0110974314       18.5453710991       10.9894792070
  H        27.3382873486       19.0553688781        8.0976653567
  H        14.8462355838       19.7202001018       12.0715604031
  H        17.0201746269       19.8485522916       13.2851310698
  H        18.3743397536       16.3299536120       11.2157737557
  H        16.1954246526       16.2173831704       10.0007021448
  H        16.9446968576       17.8332196626       14.7542504856
  H        46.0725948969       15.4514265780       12.0754535019
  H        43.9469094969       15.4157325792       13.3804340622
  H        42.5641348552       18.8576697406       11.2018244731
  H        44.6886073613       18.8670197736        9.8852902108
  H        44.0141848580       17.3528671997       14.8380280736
  H        20.3559725218       18.1765547031       11.3808404610
  H        46.0365433088       15.3915963409        4.0255920974
  H        43.9047824218       15.3317617961        2.7336964878
  H        42.5116108265       18.7853426662        4.8857503119
  H        44.6501068828       18.8321306591        6.1780871511
  H        43.9983322821       17.3163830142        1.2868283948
  H        46.1986633831       26.6823286116        4.6233261564
  H        52.7407861998       21.0625114180        8.1947067984
  H        14.8532716755       19.6776308021        3.8988611997
  H        17.0375418515       19.7606873250        2.6897834061
  H        18.3040569096       16.2023640121        4.7472883409
  H        16.1227556026       16.1458589967        5.9695114268
  H        16.9318407493       17.7805990260        1.2016014078
  H        52.3212811219       21.6728678813        6.2948682654
  H        52.0119339801       21.7011583519        9.4954409054
  H        49.0672452892       18.6073231358        5.2045080689
  H        13.2472682386       19.0175807367        7.9733666603
  H        29.9060623697       12.4365458168       12.1824577569
  H        28.8477774913       10.5227868473       13.3985760814
  H        25.2066917829       11.1428672104       11.1943229367
  H        26.2797747732       13.0451443016        9.9760033969
  H        27.1424993475       11.6658314638       14.7895510488
  H        30.9581424365       22.7277222609       12.1703817826
  H        31.9786908274       24.6268474923       13.4156966600
  H        35.5835699209       24.1997194130       11.1063136617
  H        34.5405046285       22.3131177700        9.8438380231
  H        33.6840613058       23.5707788759       14.7723949372
  H        25.6641574398        8.5756938922       11.4176646679
  H        30.9257042730       22.6507372444        3.8600348968
  H        31.9428750241       24.5368810663        2.5886370092
  H        35.5335089627       24.1696786033        4.9302761274
  H        34.4945608714       22.2965481950        6.2124302643
  H        33.6621059263       23.5521721339        1.2169341693
  H        40.5839261138       17.0748032502        4.6590821218
  H        32.5340072053       14.1099647685        8.2314114547
  H        29.8836031189       12.5705234701        3.8701011719
  H        28.8642037747       10.6621613688        2.6231286023
  H        25.2425000576       11.1191377383        4.8992642342
  H        26.2843388320       13.0073219936        6.1604164676
  H        27.1545637151       11.6848617909        1.2350446319
  H        33.3025256324       14.2211586993        6.4579496389
  H        33.4599851586       14.2332016012        9.6052286425
  H        32.0235489633       18.4118955873        5.1241531631
  H        30.2078952408       14.1943458252        8.1611365390
  H        16.1184874341        2.9624255617       12.1299000737
  H        14.9525829751        4.8191261671       13.3225893064
  H        17.3640793120        7.6854933362       11.2096741964
  H        18.5134119348        5.8181845749       10.0098177451
  H        16.7525802103        5.7391212994       14.7713725471
  H        44.8283309056       32.1400103302       11.9766193347
  H        45.9376068619       30.3411242582       13.3060760937
  H        43.6817512181       27.3779878081       11.1528878421
  H        42.5989761411       29.1898361193        9.8103329025
  H        44.2303825999       29.4366090994       14.7688346060
  H        14.8488138526        8.5446213389       11.3631045133
  H        44.9001017381       32.2338193217        3.9322427126
  H        46.0249743726       30.4127690601        2.6526825463
  H        43.7624028616       27.4839062379        4.8445394078
  H        42.6446466108       29.3175745116        6.1236191711
  H        44.2684838350       29.4703726239        1.2181263674
  H        35.0305217562       26.6312078576        4.6491663957
  H        36.6050980113       35.1338008365        8.1807329790
  H        16.1436170176        3.0126936237        3.9038010894
  H        14.9738464446        4.8559087923        2.6880332212
  H        17.3949007320        7.7471360430        4.7555046349
  H        18.5420505166        5.8932472797        5.9832527328
  H        16.7640713643        5.7553605412        1.2191424139
  H        36.2788896916       34.4819468211        6.2735001540
  H        36.3813231772       34.2089164939        9.4999725062
  H        40.5787316375       33.2012662509        5.1542908677
  H        17.4705046550        1.9466658757        7.9739416189
  H        28.7683105150       18.7612215009        3.6998621546
  H        31.7321568669       15.6771997103        3.6356102889
  H        31.0344462519       15.8670792610       12.7287063986
  H        27.7492136442       18.6098156227       14.7579564389
  H        29.7482215722       14.6392495544       14.4654606153
  H        32.4298083136       17.0175931313        1.3878451488
  H        18.8541088531        0.8689958042       12.3353150506
  H        40.5279945247       35.2290249101        3.9522183160
  H        42.3228724230       34.4179689536        3.5907915096
  H        22.0875612979        0.6919728371       12.3511832261
  H        11.5966211620       18.7125659505       12.3831883686
  H        52.2649940917       18.4311119854        3.6779655650
  H        49.2546490798       16.4767557727        3.5850004998
  H        10.1499199515       15.7980278584       12.2927153044
  H        50.8498607933       17.6926258792        3.9540129162
  H        10.0457807614       17.3942777864       12.0521038054
  H        20.2155694684        0.0019600308       12.0419179426
  H        39.1836144649       36.1242935049        3.6863212331
 Ni        30.5640719705       17.5016816452        2.8304973405
 Ni        30.6948380432       16.1985917531        0.1663510941
 Ni        29.5442030415       18.1460377495        0.4199832181
 Ni        29.4208236061       16.9880370591       14.4872645666
  O        10.6499578803       14.3651632232        5.4859244008
  O        12.6132437300       14.6576836409        6.5840872426
  O        49.1478343732       16.8459188629        7.9897521503
  O        50.3502201029       20.9359140548        5.6482530560
  O        48.3485268712       20.5932248269        6.6659404194
  O        11.0520138190       17.0532297905        6.5009977451
  O        50.3210116927       20.8815903522       10.4068561771
  O        48.3467615360       20.5867040537        9.3271008580
  O        49.5439565779       18.2482950589       10.0683765737
  O        12.3595849286       18.6243674605        8.0000031221
  O        48.6931589085       14.1487113763        6.7511742920
  O         8.2096686634       14.2105992224        9.3227408162
  O        10.7352281361       14.5067773874       10.6642691582
  O        12.5719394988       14.5830506866        9.3285914932
  O        22.8444045543        2.0415265559        5.4879093482
  O        21.6053214508        3.5919820172        6.5896114961
  O        42.0578533242       34.1367459384        7.9787977261
  O        37.9814644559       33.1378539592        5.5728214268
  O        39.2178622944       31.5760165566        6.6662972421
  O        20.3081842095        1.0391130299        6.5017822509
  O        38.0244668163       33.1855021241       10.4155210294
  O        39.2172366884       31.5822131816        9.3283981532
  O        40.6522325820       33.7689753098       10.0601526652
  O        18.2555163227        1.3759648962        7.9967831313
  O        44.6223161768       35.1004097313        6.7587210485
  O        24.2054965063       -0.0000541480        9.3207506183
  O        22.7519680515        2.0544987780       10.5826859036
  O        21.6233750356        3.5945993396        9.3414908091
  O        27.4495025649       18.6887842194        5.4902481767
  O        26.6836629840       16.9153817318        6.6723652528
  O        30.5932865829       19.4132525888        8.0019743360
  O        33.5927947367       16.2662685131        5.7466839106
  O        34.2680039083       18.1849558511        6.7457200499
  O        29.5308854844       17.0222583750        6.6584682817
  O        33.6378725067       16.3384133161       10.3272625195
  O        34.2616977976       18.3204983442        9.4101337538
  O        31.5558427067       18.3192834569       10.1595789883
  O        30.3142853174       15.1600985667        8.1557053310
  O        28.5139601606       21.0897027484        6.7321412160
  O        28.5490622956       21.0381131098        9.3294556460
  O        27.6312524325       18.6862630227       10.7440835973
  O        26.7374686900       17.0016121689        9.4906040365
  O        13.1483230866       18.6944283386       10.5867057426
  O        13.9241051046       16.9182566625        9.4085255719
  O        50.5961134759       19.3500712465        8.0213100529
  O        47.6805988449       16.3279112597       10.4180724693
  O        46.9518732953       18.1762199550        9.3243415817
  O        11.0701061884       17.0151088798        9.4896673674
  O        47.6747392778       16.3360365010        5.6523366803
  O        46.9257555185       18.2357612207        6.6634216036
  O        49.5689897386       18.3176362539        5.9824982020
  O        10.3186972787       15.1002773647        7.9971932276
  O        52.6706842786       21.0279901810        9.2418837639
  O        12.1468110802       20.8911137465        6.6732405210
  O        13.1050230503       18.6142474451        5.3258080016
  O        13.9577803268       16.9874031533        6.6636532633
  O        29.9477952301       14.3647871677       10.6563407320
  O        28.0073944347       14.6563626022        9.4936864960
  O        32.0859370270       16.9135275736        8.0961074431
  O        30.9103491156       20.8708310917       10.5688610149
  O        32.8178825392       20.6626218600        9.3344084532
  O        29.4529920535       17.0091457391        9.7519790791
  O        30.8492214365       20.8737986401        5.5886420732
  O        32.8500321365       20.5843575754        6.6577895547
  O        31.6070348677       18.2501959915        5.9906561915
  O        28.2338895228       18.6807178361        8.0672281909
  O        32.5316071948       14.1424147242        9.3262102826
  O        32.4063413407       14.2088422725        6.8348084637
  O        29.9149052347       14.4318036920        5.4999072113
  O        28.0323328819       14.5828952967        6.7498302205
  O        17.8890738392        1.9663523550       10.6628551820
  O        18.9560647262        3.5270581307        9.4080833929
  O        39.1685570374       34.1385798823        7.9972321214
  O        43.2802185464       33.0587319885       10.3316529581
  O        42.0343617611       31.5064030366        9.2416246527
  O        20.3172542326        1.0362177051        9.4802907227
  O        43.2760651115       33.1823865722        5.5748525451
  O        42.0051997248       31.5840825843        6.5830608226
  O        40.5790332146       33.7748711793        5.9357467918
  O        22.3669491305        1.3840480833        7.9978751650
  O        36.6727060951       35.0996841427        9.2333622563
  O        16.4454525493        0.0642054122        6.6683113633
  O        17.9363352430        2.0432878214        5.3263480222
  O        18.9188938008        3.5931804328        6.6657966938
  O        29.6591243030       18.6856222079        4.0868209750
  O        31.3520006630       16.3394508309        4.2436636375
  O        31.3969724899       16.2596922250       11.8992117791
  O        31.7240035663       16.4095621601        1.6808634536
  O        30.3718976190       15.3867125152       14.4020070029
  O        28.7154235602       18.6917967422       14.6587429951
  O        39.4567386665       35.2437192290        4.0019649915
  O        19.1418925657        0.0045431469       11.9905262899
  O        41.9695542835       35.1726016167        4.0870445492
  O        21.6911505074       -0.0696680404       11.8959758663
  O        51.3649917142       18.6143075053        4.0054325034
  O        10.7511782896       18.7472234327       11.9051043185
  O        50.0793784289       16.4127760538        4.0918699772
  O         9.5242249157       16.4830200471       11.9911858457
 Zr         9.2962544148       16.0527933982        6.1823332756
 Zr        49.8351602221       16.0068378415        9.7464769061
 Zr        22.0730191413        0.0288713821        6.1890027193
 Zr        42.4605472796       35.1521554305        9.8004554172
 Zr        29.5416133302       19.0441425721        6.1785456042
 Zr        29.5915881953       19.3031256717        9.7030038312
 Zr        11.0377467126       19.0516676627        9.8281303439
 Zr        11.0427509904       19.1547039909        6.2518523966
 Zr        31.4450198999       16.0007512685        9.9659764454
 Zr        31.3848331062       15.9982663841        6.3087818409
 Zr        18.6008095194       -0.0024117641        9.7638163609
 Zr        18.5062732623       -0.0084999039        6.2135252355
 Zr        12.3021492471       16.3235793381        7.9915412332
 Zr        48.6151088269       18.8329084064        8.0101511355
 Zr        20.3142273603        2.4720504906        7.9899813642
 Zr        40.6422964784       32.6860576619        7.9785404197
 Zr        28.2646055265       16.2716498969        8.0313664239
 Zr        32.6268220754       18.8351485230        8.0287390283
  H        29.2572494195       17.7510311426        1.8719678877
  H        28.9675318482       16.7874210456       10.5698816172
