     570
 i =       99, E =     -4745.5811212794
  C        11.8585506515       14.0534685987        5.7416746519
  C        12.4558963597       12.8903553038        5.0234115741
  C        11.7043534861       12.1719524428        4.0812419578
  C        12.2806032880       11.1096863835        3.3888625234
  C        13.6209414759       10.7392936711        3.6170293762
  C        14.3538954171       11.4422656009        4.5911078359
  C        13.7811182999       12.5072672825        5.2826700771
  C        14.2604374512        9.6486345754        2.8435992968
  C        14.2558386797        9.6565945297        1.4218882336
  C        13.7427805484       10.7587447072        0.6679426824
  C        49.1265287367       21.2333901130        5.8797132497
  C        48.5497120830       22.4012152172        5.1526915505
  C        49.2997866975       23.0686240773        4.1717668892
  C        48.7328257292       24.1077083421        3.4385468105
  C        47.4022218589       24.5092269954        3.6670608305
  C        46.6712124336       23.8602455923        4.6804703548
  C        47.2336814661       22.8153773114        5.4098547184
  C        46.7720088721       25.5869023276        2.8697547870
  C        46.7611264917       25.5573057073        1.4479951701
  C        47.2611350965       24.4422374281        0.7045155139
  C        14.8597372091        8.5702225198        0.7086271728
  C        14.8910972436        8.5965939025        3.5202364840
  C        49.1128445312       21.2034644441       10.1453303620
  C        48.5273888847       22.3646900403       10.8724635449
  C        49.2666669835       23.0256271954       11.8652130825
  C        48.6902600014       24.0601174551       12.5966754297
  C        47.3597195473       24.4566118347       12.3586387300
  C        46.6392289794       23.8114564083       11.3353233716
  C        47.2128596699       22.7756115733       10.6035184560
  C        46.7212710965       25.5315660466       13.1496653068
  C        46.7332291869       25.5280294404       14.5713611150
  C        47.2488119810       24.4288950027       15.3277550400
  C        40.6180871381       17.1161818453       15.3183335008
  C        40.6372050311       17.1293583532       12.5078746338
  C        11.8827673147       14.0863958675       10.2855165304
  C        12.4718277782       12.9103148106       10.9895173786
  C        11.7143700841       12.1775587648       11.9160317310
  C        12.2807807618       11.0950194230       12.5844672320
  C        13.6193896481       10.7207408693       12.3522776329
  C        14.3572024450       11.4357333923       11.3909080786
  C        13.7919642871       12.5169974535       10.7182114761
  C        14.2529712969        9.6240330652       13.1227643545
  C        14.2518751153        9.6441390745       14.5446123198
  C        13.7421581082       10.7531613021       15.2916846453
  C        22.5117049050        3.2448008729        5.7551411269
  C        23.2259773356        4.3530700489        5.0596767599
  C        24.2289462518        4.0782799994        4.1185411620
  C        24.8537309928        5.1215169620        3.4401520730
  C        24.4908750450        6.4613301435        3.6827704132
  C        23.5166104450        6.7278991035        4.6616341887
  C        22.8874644998        5.6864309767        5.3385688417
  C        25.0933157650        7.5691551341        2.9070131171
  C        25.0709239522        7.5556942678        1.4857298121
  C        24.3663307114        6.5554449175        0.7430663659
  C        38.2981995090       31.9268750085        5.8517149949
  C        37.5580207790       30.8372414689        5.1510197990
  C        36.5920347323       31.1420016528        4.1793779581
  C        35.9633021475       30.1226785316        3.4693410262
  C        36.2849823799       28.7716118337        3.7067001054
  C        37.2200043404       28.4744196132        4.7164104672
  C        37.8526026967       29.4926411605        5.4261279745
  C        35.6758525063       27.6828331283        2.9076733498
  C        35.7115264805       27.7003464359        1.4857186634
  C        36.4242867084       28.7013598780        0.7528765683
  C        25.7002710985        8.6196221375        0.7628787577
  C        25.6820656474        8.6503950792        3.5752058382
  C        38.3301048980       31.9602005658       10.1610297711
  C        37.6130549029       30.8880025597       10.9110767291
  C        36.6816495765       31.1988491683       11.9141631003
  C        36.0703767765       30.1830117079       12.6472994880
  C        36.3747001285       28.8285967715       12.4024198004
  C        37.2873222756       28.5277729933       11.3722734025
  C        37.9006105694       29.5401279436       10.6401958611
  C        35.7573665688       27.7309974742       13.1842510873
  C        35.7532194811       27.7247027760       14.6069412981
  C        36.4429564627       28.7136272922       15.3762355632
  C        46.1352196348       26.6206642841       15.2814859143
  C        46.0871344023       26.5798047604       12.4735990269
  C        22.4589715371        3.2550971634       10.2597501015
  C        23.1497623738        4.3624052466       10.9882359756
  C        24.1458316889        4.0732445293       11.9344680721
  C        24.7722550658        5.1011496658       12.6350235438
  C        24.4232054459        6.4479567599       12.4111384321
  C        23.4490572050        6.7303590546       11.4348025658
  C        22.8175280191        5.7025641004       10.7352455185
  C        25.0579759303        7.5442871658       13.1843402803
  C        25.0535778655        7.5417957813       14.6071106728
  C        24.3552416306        6.5505788504       15.3664570100
  C        26.5618396237       17.8247939640        5.8337239454
  C        25.2624783835       17.8761292515        5.1005177215
  C        25.0142870498       18.8883400648        4.1597043417
  C        23.8104455696       18.9190880040        3.4599236059
  C        22.8207590656       17.9399461375        3.6781595839
  C        23.0648488695       16.9492286936        4.6483564539
  C        24.2699197378       16.9143748637        5.3478333424
  C        21.5545234391       17.9416758448        2.9052552551
  C        21.5596082285       17.9491603265        1.4830576369
  C        22.7679995017       17.8459458188        0.7247786656
  C        34.4143758223       17.2225579115        5.9174031988
  C        35.7012400786       17.1658711538        5.1638254580
  C        35.8830826321       16.2226317155        4.1403369080
  C        37.0679318747       16.1998182275        3.4084545852
  C        38.1018286874       17.1193358846        3.6764587851
  C        37.9185324665       18.0440440142        4.7229379812
  C        36.7331722203       18.0717082440        5.4537762789
  C        39.3593762778       17.1221805386        2.8932253541
  C        39.3583592540       17.1450882728        1.4709097352
  C        38.1550423948       17.2875291470        0.7106238959
  C        20.3146615089       17.9751586457        0.7717241365
  C        20.3290191092       17.9330896979        3.5841230559
  C        34.4247731965       17.2076808660       10.2284984741
  C        35.7350307718       17.1268811626       10.9334134126
  C        35.9484380093       16.1656267595       11.9329297603
  C        37.1441014215       16.1491669791       12.6455428035
  C        38.1549488412       17.0943030440       12.3809286188
  C        37.9482141357       18.0266728285       11.3467916720
  C        36.7517140244       18.0475261857       10.6352996754
  C        39.4052482970       17.1222201515       13.1720970667
  C        39.3819076105       17.1463172191       14.5936001024
  C        38.1657158857       17.2859035603       15.3339217669
  C        35.1124544749       26.6478412130       15.3064459089
  C        35.1692724677       26.6612460014       12.4972420009
  C        26.5871472668       17.8073690232       10.4110410040
  C        25.2669159948       17.8911340901       11.0951000768
  C        24.9934922121       18.9257906947       12.0017918620
  C        23.7640926539       18.9757591838       12.6527708398
  C        22.7838675550       17.9912193902       12.4195844235
  C        23.0500716090       16.9845897635       11.4745694654
  C        24.2780652216       16.9334100224       10.8207114554
  C        21.5173567445       17.9809329081       13.1853603620
  C        21.5399952116       17.9682984764       14.6061181013
  C        22.7585202977       17.8557744358       15.3484494368
  C        14.0454533940       17.8326056860       10.2869338772
  C        15.3492333114       17.9013443926       11.0110693220
  C        15.5975038835       18.9158202765       11.9488907412
  C        16.8044657456       18.9510819189       12.6438873185
  C        17.7964571910       17.9750126310       12.4221750076
  C        17.5532519284       16.9844660389       11.4520523969
  C        16.3453922365       16.9447131967       10.7584224950
  C        19.0631729845       17.9724504376       13.1941684410
  C        19.0585517991       17.9678458219       14.6162968781
  C        17.8497499925       17.8625575286       15.3736757205
  C        46.8029090967       17.2183021880       10.1593482684
  C        45.5119321784       17.1539740122       10.9049097182
  C        45.3078446203       16.1763370976       11.8913028657
  C        44.1255195659       16.1541962314       12.6268881821
  C        43.1157702854       17.1097502805       12.3990420004
  C        43.3172912930       18.0670151051       11.3859577979
  C        44.5003360736       18.0930481068       10.6512328272
  C        41.8613290478       17.1187954562       13.1875682405
  C        41.8655698079       17.1214839144       14.6101991977
  C        43.0734551729       17.2119818255       15.3712102394
  C        20.3037371993       17.9812941870       15.3274357769
  C        20.2884749281       17.9618624249       12.5146629401
  C        46.7816707861       17.2306596913        5.8882442308
  C        45.4758647885       17.1222415545        5.1745063639
  C        45.2551815748       16.1225843685        4.2144700187
  C        44.0649774252       16.0926203990        3.4908537814
  C        43.0634408959       17.0590787949        3.7088470944
  C        43.2743662652       18.0279842594        4.7080895454
  C        44.4657404844       18.0644237242        5.4267421492
  C        41.8160235277       17.0821291466        2.9105934942
  C        41.8424095413       17.1012128253        1.4889641226
  C        43.0624293485       17.1995144654        0.7482282766
  C        46.1530623972       26.6371447679        0.7262339367
  C        46.1619823432       26.6559806021        3.5358778663
  C        14.0401312426       17.8304418802        5.7098435543
  C        15.3573301352       17.9044925601        5.0175665022
  C        15.6317114485       18.9324225652        4.1038051631
  C        16.8588458741       18.9725583981        3.4475008613
  C        17.8345832499       17.9833744878        3.6806397594
  C        17.5664789369       16.9825121051        4.6313621789
  C        16.3418113228       16.9424459722        5.2920777895
  C        19.1001620634       17.9655358849        2.9135432948
  C        19.0782150518       17.9629496314        1.4928202556
  C        17.8592601622       17.8616064222        0.7497697528
  C        28.8050473534       14.0793056054       10.4036117149
  C        28.1984222486       12.8997900000       11.0814348866
  C        28.9341653678       12.1377634498       12.0012874906
  C        28.3364622933       11.0628056758       12.6538701972
  C        26.9901303752       10.7258687617       12.4090262638
  C        26.2761280483       11.4656219321       11.4495768450
  C        26.8710468234       12.5414651209       10.7961568975
  C        26.3221326264        9.6490358467       13.1749882219
  C        26.3173083057        9.6776498546       14.5959257265
  C        26.8374962035       10.7856637912       15.3376720140
  C        32.1799858101       21.2414223198       10.1520676997
  C        32.7704737954       22.4088940132       10.8669471696
  C        32.0245058294       23.0720144638       11.8536927566
  C        32.5894966984       24.1150721730       12.5800707802
  C        33.9176621596       24.5202276630       12.3458147658
  C        34.6465237916       23.8740288036       11.3287481263
  C        34.0831766404       22.8276593429       10.6010470200
  C        34.5435263951       25.5936551653       13.1515322707
  C        34.5218767442       25.5656181717       14.5740608051
  C        33.9983780881       24.4546891194       15.3090435628
  C        25.6982117702        8.6075357035       15.3181093765
  C        25.6761734202        8.6025906422       12.5047943512
  C        32.0769300154       21.1964310678        5.8815834507
  C        32.6459326219       22.3575846304        5.1340828077
  C        31.8990612259       23.0414558651        4.1620423254
  C        32.4740353507       24.0775806689        3.4278532085
  C        33.8092629456       24.4670972530        3.6526242372
  C        34.5381902831       23.8006681626        4.6563683440
  C        33.9696162189       22.7568424559        5.3807242812
  C        34.4496544075       25.5542263938        2.8738027229
  C        34.4703922542       25.5481492209        1.4515930783
  C        33.9707367839       24.4482266846        0.6858661503
  C        40.6058391987       17.1103717020        0.7636135820
  C        40.5834364883       17.1069511859        3.5736300341
  C        28.7141634925       14.0950235769        5.8269191014
  C        28.1010597383       12.9493815998        5.0907039328
  C        28.8558251462       12.2198875945        4.1582302136
  C        28.2783903153       11.1637449916        3.4574241501
  C        26.9315780519       10.8061664453        3.6669551292
  C        26.1927440540       11.5221373545        4.6278708727
  C        26.7673692999       12.5815726315        5.3284587635
  C        26.2987922020        9.7082595571        2.8950065383
  C        26.3063441767        9.7081957830        1.4729751782
  C        26.8291803380       10.8019682893        0.7139352686
  C        18.1352671671        3.1806999884       10.3171535226
  C        17.4057877677        4.2779261464       11.0157637796
  C        16.3900788382        3.9994160605       11.9432318298
  C        15.7421822593        5.0392982527       12.6067406547
  C        16.0939103666        6.3830586672       12.3670789675
  C        17.0832498544        6.6527332528       11.4033127933
  C        17.7325084357        5.6154859620       10.7382642834
  C        15.4694773511        7.4907120088       13.1301184614
  C        15.4848556695        7.4901267379       14.5518345170
  C        16.1864265209        6.4965303929       15.3050137299
  C        42.9456942554       31.8593619097       10.0728347294
  C        43.6459238958       30.7716544058       10.8168027896
  C        44.5916992959       31.0928840372       11.8026713279
  C        45.1972672240       30.0872776170       12.5503518071
  C        44.8704427582       28.7342768678       12.3356987718
  C        43.9443099963       28.4200196023       11.3227515363
  C        43.3356255177       29.4252251315       10.5746888530
  C        45.4880279751       27.6549722693       13.1388807163
  C        45.4923804944       27.6807081229       14.5605674344
  C        44.8052937668       28.6887655576       15.3071743566
  C        14.8559193451        8.5626532281       15.2641831002
  C        14.8740805447        8.5624020367       12.4515154320
  C        42.9463413171       31.9615186693        5.8089817954
  C        43.6914913897       30.8853967224        5.0954570374
  C        44.6562598128       31.1912727799        4.1233159394
  C        45.2777016619       30.1716626650        3.4055628816
  C        44.9536622603       28.8213768842        3.6430242286
  C        44.0199091385       28.5237377975        4.6535489453
  C        43.3917117481       29.5405263739        5.3657509933
  C        45.5627202507       27.7239712271        2.8577990378
  C        45.5330494270       27.7172829229        1.4365059996
  C        44.8266425170       28.7074576132        0.6835648017
  C        35.0889171402       26.6374435043        0.7519723782
  C        35.0644760574       26.6073215024        3.5631308178
  C        18.1484034733        3.2466811353        5.7066941747
  C        17.4296062055        4.3435176015        4.9974003396
  C        16.4145475648        4.0521463515        4.0737142679
  C        15.7661155056        5.0827131805        3.3983068036
  C        16.1205080936        6.4279954092        3.6211423130
  C        17.1116758247        6.7114767498        4.5785926584
  C        17.7594385399        5.6826271123        5.2583768258
  C        15.4899964773        7.5236836685        2.8486721173
  C        15.4959467361        7.5071097761        1.4275274601
  C        16.1926754514        6.5053839399        0.6808293153
  H        10.6724046462       12.4665139334        3.9038753938
  H        11.6943535842       10.5515799572        2.6620023307
  H        15.3906913983       11.1670949823        4.7733158849
  H        14.3503826740       13.0699298981        6.0186924075
  H        13.3758298320       11.6309166082        1.2012165584
  H        50.3225381558       22.7486914476        3.9871070418
  H        49.3193037846       24.6230483181        2.6810165533
  H        45.6416538989       24.1608745953        4.8635084760
  H        46.6625821731       22.2900582455        6.1718306619
  H        47.6296816374       23.5758617183        1.2461944544
  H        14.8712717904        8.5877314149        4.6085405592
  H        50.2868079249       22.7030071215       12.0599823781
  H        49.2686562536       24.5757585728       13.3600485697
  H        45.6097046391       24.1084203369       11.1464708191
  H        46.6519296216       22.2532720872        9.8321545054
  H        47.6075596210       23.5517482067       14.7968839769
  H        40.6441722517       17.0889965028       11.4202779425
  H        48.6868554730       14.0951196932        7.7998966974
  H        10.6810582393       12.4670251056       12.0937254050
  H        11.6889930327       10.5249588487       13.2974353023
  H        15.3924237849       11.1573309410       11.2045760611
  H        14.3642142067       13.0859681687        9.9892978639
  H        13.3753408790       11.6217772644       14.7530443682
  H        47.9300825458       14.2180380804        9.7109343465
  H        47.7799111815       14.3736362249        6.4949785101
  H        49.0826130200       18.5522447766       10.8670156536
  H        10.4156013038       14.1343341973        7.9987828628
  H        24.4960541364        3.0410897818        3.9284989465
  H        25.6312813920        4.9087477621        2.7096885374
  H        23.2290389245        7.7592298790        4.8552068290
  H        22.1126568517        5.8820651696        6.0757758198
  H        23.8019408949        5.8030463585        1.2861392362
  H        36.3585467799       32.1856176341        3.9821291636
  H        35.2152272679       30.3643842025        2.7174685915
  H        37.4767904548       27.4347537217        4.9089835420
  H        38.5999050987       29.2687745872        6.1837911002
  H        36.9882421461       29.4493667406        1.3023891887
  H        25.7073478367        8.6416514554        4.6634048310
  H        36.4556198821       32.2434643338       12.1160348636
  H        35.3416406914       30.4320034161       13.4155661556
  H        37.5368054341       27.4871153325       11.1758055898
  H        38.6254670784       29.3101629776        9.8630235199
  H        37.0220340669       29.4709001007       14.8554472578
  H        46.1082955775       26.5870768698       11.3855582439
  H        44.6680979223       35.1160626016        7.8139321943
  H        24.4203431077        3.0342190760       12.1018956252
  H        25.5489961269        4.8697964933       13.3607641254
  H        23.1676023783        7.7656954527       11.2534919425
  H        22.0498708536        5.9177022239        9.9954829576
  H        23.7812257955        5.7953768052       14.8373532973
  H        44.9535212452       34.3900687619        9.6949199312
  H        44.9011688317       34.2066227154        6.4905543785
  H        40.6656259017       33.2085470101       10.8529384665
  H        23.1503721283        1.9574681716        8.0061303564
  H        25.7752193634       19.6475568618        3.9944694885
  H        23.6207594706       19.7111604715        2.7386968737
  H        22.3104581313       16.1850441854        4.8241018264
  H        24.4698180124       16.1378710096        6.0826522049
  H        23.7090275187       17.7263315760        1.2537996370
  H        35.0790980496       15.5214983319        3.9271016961
  H        37.2077507837       15.4584560766        2.6247986753
  H        38.7059288644       18.7644204920        4.9349488914
  H        36.5784477831       18.7997696209        6.2467208211
  H        37.2170296123       17.4298665966        1.2392881920
  H        20.3321563909       17.9536203541        4.6724698635
  H        35.1582459503       15.4508113262       12.1504653038
  H        37.3073387484       15.4014523693       13.4184981584
  H        38.7213632305       18.7626679607       11.1361289068
  H        36.5717690730       18.7872002059        9.8587801110
  H        37.2359766001       17.4262559468       14.7900190335
  H        35.1511739520       26.6866024281       11.4093134614
  H        28.5077841016       21.0904074930        8.0014039389
  H        25.7540259540       19.6826382380       12.1801089786
  H        23.5501725131       19.7784446576       13.3551995933
  H        22.2986622652       16.2195977925       11.2902694986
  H        24.5023883859       16.1451739540       10.1062681261
  H        23.6926283505       17.7450405683       14.8059096778
  H        28.9727158880       21.7272999808        9.7861801385
  H        29.1513642020       21.7345652661        6.6153759160
  H        32.1013472943       18.5528183818       11.0609420043
  H        27.3472865558       19.0921745159        8.1602861687
  H        14.8335828442       19.6714296175       12.1176023318
  H        16.9939459992       19.7432410674       13.3650913581
  H        18.3098789021       16.2232615392       11.2731522220
  H        16.1450152213       16.1672432740       10.0249640766
  H        16.9085927413       17.7500311889       14.8433838469
  H        46.0929716840       15.4466047305       12.0748665465
  H        43.9695152456       15.3875252431       13.3826662923
  H        42.5467336106       18.8135201391       11.2047542602
  H        44.6703818870       18.8469832880        9.8861162190
  H        44.0165367345       17.3224409969       14.8435737665
  H        20.2851503476       17.9891438560       11.4264679503
  H        46.0323948117       15.3829341335        4.0359031961
  H        43.8992489692       15.3164286156        2.7468638090
  H        42.5076463736       18.7795191352        4.8846487914
  H        44.6474924575       18.8325413986        6.1745073711
  H        43.9971729386       17.2990449223        1.2923875255
  H        46.1986727875       26.6824843245        4.6233286655
  H        52.7410564406       21.0626498741        8.1945496808
  H        14.8739527263       19.6923104462        3.9263340172
  H        17.0752031691       19.7718520246        2.7419735012
  H        18.3137207026       16.2133563467        4.8152856464
  H        16.1158394042       16.1592767671        6.0115652449
  H        16.9251348291       17.7486010103        1.2917276287
  H        52.3220288163       21.6734423273        6.2947690810
  H        52.0134682100       21.7025757927        9.4954616802
  H        49.0663174217       18.6074112502        5.2041786365
  H        13.2469365034       19.0169702121        7.9772293095
  H        29.9718441591       12.4022943928       12.1914943023
  H        28.9067442091       10.4720020476       13.3674664879
  H        25.2358573030       11.2138082003       11.2539644892
  H        26.3171696463       13.1356667984       10.0735481156
  H        27.2169959850       11.6455816109       14.7938590345
  H        31.0074984679       22.7433328952       12.0524057029
  H        32.0040191916       24.6252717754       13.3415082752
  H        35.6752784779       24.1756238385       11.1427246115
  H        34.6529152836       22.3044301718        9.8365972448
  H        33.6383691649       23.5856279295       14.7651718974
  H        25.7006086964        8.5831298070       11.4166795309
  H        30.8646992039       22.7523925909        3.9896671774
  H        31.8872714147       24.6027384762        2.6772571727
  H        35.5714638891       24.0895105638        4.8373930451
  H        34.5399647226       22.2211972558        6.1357309214
  H        33.5896087046       23.5749353504        1.2079244056
  H        40.5753919412       17.0628044214        4.6610997481
  H        32.5196619164       14.1492317480        8.2773837586
  H        29.8978582048       12.4905645729        4.0032154350
  H        28.8711477472       10.5956836425        2.7435952471
  H        25.1506514173       11.2583037798        4.7964054040
  H        26.1931542185       13.1492581630        6.0570650187
  H        27.2014705566       11.6743800749        1.2431331685
  H        33.2886420218       14.2024231397        6.4252613600
  H        33.4071103138       14.3936596068        9.6253377212
  H        32.1548301097       18.5287650657        5.2811089541
  H        30.2074875430       14.1443890494        8.1389470852
  H        16.1181526108        2.9628651154       12.1295939048
  H        14.9527097378        4.8197634694       13.3223322530
  H        17.3654589350        7.6856633604       11.2101721363
  H        18.5144746271        5.8181919869       10.0103550791
  H        16.7528635280        5.7391039225       14.7715079655
  H        44.8282569158       32.1399271062       11.9766941773
  H        45.9373015308       30.3409062515       13.3061714706
  H        43.6811824405       27.3780158587       11.1529032976
  H        42.5987366418       29.1899506134        9.8102654607
  H        44.2297799281       29.4364080743       14.7688636307
  H        14.8501613024        8.5454919035       11.3633003259
  H        44.8999778902       32.2339357260        3.9320056950
  H        46.0247103890       30.4128236891        2.6524082943
  H        43.7625980070       27.4840476529        4.8448577325
  H        42.6449455044       29.3177344827        6.1239377852
  H        44.2680350395       29.4702657060        1.2181590087
  H        35.0215354966       26.6150368470        4.6507020141
  H        36.6050820887       35.1338254502        8.1807408281
  H        16.1436619236        3.0125279471        3.9038983171
  H        14.9738792839        4.8557302399        2.6881631132
  H        17.3948827837        7.7469945957        4.7556636900
  H        18.5420728468        5.8931246604        5.9833851422
  H        16.7640082099        5.7550761640        1.2192809411
  H        36.2786341490       34.4820297255        6.2733832864
  H        36.3804615698       34.2091606871        9.4998777603
  H        40.5785574583       33.2012915895        5.1542422653
  H        17.4708964107        1.9467023989        7.9740359531
  H        28.8489889820       18.9601928374       12.4404803222
  H        28.8259182574       18.3955793060        3.9891171095
  H        30.4352412635       15.7034767925        3.8920514622
  H        30.9873757317       15.6487951359       12.5725334901
  H        29.8710801431       16.1760902850       14.8901817089
  H        30.6697591460       20.2355996237        3.1003000552
  H        33.0195991936       17.8704729529        1.9108049993
  H        30.3603133164       20.4447797240       13.8315902439
  H        18.8532450904        0.8688299358       12.3353028668
  H        40.5279178294       35.2291319295        3.9521974203
  H        42.3234064936       34.4182866991        3.5911233236
  H        22.0876916377        0.6920840879       12.3512595269
  H        11.5966393059       18.7127916773       12.3824280101
  H        52.2645708435       18.4313249866        3.6772126041
  H        49.2554360034       16.4765387395        3.5841036216
  H        10.1503528107       15.7983117567       12.2926280835
  H        50.8498408703       17.6925436749        3.9540848069
  H        10.0459750513       17.3947634394       12.0519395157
  H        20.2145659710        0.0021132100       12.0420405567
  H        39.1834344975       36.1243177506        3.6864540479
 Ni        31.0730763638       17.9391034247        3.2466984303
 Ni        31.4100889740       17.0052698009        0.4144059288
 Ni        30.6833209439       18.9553608424       -0.4216820597
 Ni        30.5641074730       17.7879497918       13.4090115003
  O        10.6498525717       14.3651986609        5.4858129011
  O        12.6130908718       14.6573869799        6.5839498552
  O        49.1476059100       16.8459651551        7.9896368124
  O        50.3500858576       20.9361998361        5.6482288147
  O        48.3484657907       20.5932485652        6.6659610742
  O        11.0509861873       17.0539427123        6.5007732581
  O        50.3207170528       20.8817054046       10.4068401188
  O        48.3466339656       20.5866398490        9.3270157320
  O        49.5434038274       18.2484355452       10.0682744995
  O        12.3587763795       18.6246229413        7.9998080244
  O        48.6931467914       14.1487265896        6.7512159925
  O         8.2098014999       14.2104571529        9.3225859445
  O        10.7352785713       14.5067503115       10.6643370949
  O        12.5717996257       14.5828075878        9.3286158780
  O        22.8447093210        2.0442602066        5.4872786917
  O        21.6044870843        3.5919321956        6.5909594822
  O        42.0578285812       34.1370019006        7.9788597405
  O        37.9813213946       33.1357586048        5.5723236434
  O        39.2176136190       31.5751716723        6.6660670347
  O        20.3082517749        1.0393376728        6.5020123276
  O        38.0244031214       33.1848860373       10.4157239322
  O        39.2181629559       31.5828278823        9.3277330082
  O        40.6521636424       33.7690904400       10.0601922376
  O        18.2558207405        1.3758608774        7.9967924181
  O        44.6221914379       35.1005581939        6.7586972005
  O        24.2053723344       -0.0000212169        9.3207808100
  O        22.7528815974        2.0570889808       10.5838768461
  O        21.6246106232        3.5963351754        9.3435245394
  O        27.4611992840       18.6830076355        5.5060585114
  O        26.6869143656       16.9335113639        6.7398909106
  O        30.6383396211       19.3558372846        8.1405772353
  O        33.5382912168       16.3300531353        5.6636268579
  O        34.2705032919       18.1808207349        6.7524639817
  O        29.5585469011       17.0598842860        6.6665999806
  O        33.5391864352       16.3267844556       10.5029019948
  O        34.2684998798       18.1761675860        9.4109328678
  O        31.6478891827       18.3167221699       10.2336383902
  O        30.2937259884       15.1111624131        8.1478662984
  O        28.5485360447       21.0313122189        6.9168435637
  O        28.5136879266       20.9541150179        9.4157860443
  O        27.5066562538       18.6218525080       10.7624442475
  O        26.6930392736       16.9225218246        9.4930198365
  O        13.1458826565       18.6943693959       10.5864372438
  O        13.9198616639       16.9169774015        9.4061675303
  O        50.5955234747       19.3501939097        8.0203722443
  O        47.6820949938       16.3272890387       10.4175654054
  O        46.9504774441       18.1756582730        9.3253677213
  O        11.0689651448       17.0158909320        9.4897406156
  O        47.6736536508       16.3360070649        5.6523513198
  O        46.9247565354       18.2358197124        6.6631700532
  O        49.5681345965       18.3176947655        5.9820994897
  O        10.3186032726       15.1002243051        7.9971353903
  O        52.6706668183       21.0280158105        9.2417685902
  O        12.1467697885       20.8913122093        6.6732499839
  O        13.1050107672       18.6142605518        5.3265474610
  O        13.9541968772       16.9857902400        6.6663101285
  O        29.9890915879       14.4350087222       10.7421069770
  O        28.0850898952       14.6472934062        9.5100161865
  O        32.0753052499       16.8558872116        8.1542111547
  O        30.9654294907       20.9511157520       10.4132295317
  O        32.9456682333       20.5995768264        9.3430758890
  O        29.5640851164       17.0831414375        9.5888396217
  O        30.8465394224       20.8787287256        5.6588827123
  O        32.8657762071       20.5841559397        6.6716110884
  O        31.6745571804       18.2531555012        6.0833795789
  O        28.2255174464       18.6785797594        8.1522087742
  O        32.4924035373       14.2136146751        9.3424465196
  O        32.4047541375       14.2134550561        6.8286761576
  O        29.9031764125       14.4401881445        5.5007658059
  O        28.0068203059       14.6444437670        6.7425472247
  O        17.8891390429        1.9664651737       10.6628170273
  O        18.9561628174        3.5270803445        9.4080464661
  O        39.1685571424       34.1385485209        7.9971239428
  O        43.2801706784       33.0588201599       10.3316660912
  O        42.0343625709       31.5064428947        9.2415544117
  O        20.3174103051        1.0363835852        9.4805223162
  O        43.2760767546       33.1825507658        5.5749065092
  O        42.0052381013       31.5841167913        6.5830326682
  O        40.5789424944       33.7748462936        5.9357469375
  O        22.3671382720        1.3844488107        7.9979799880
  O        36.6727782498       35.0996440219        9.2333471762
  O        16.4456071868        0.0640430651        6.6682246570
  O        17.9363686202        2.0431570071        5.3264079539
  O        18.9189089482        3.5930633910        6.6659191547
  O        29.6953647410       18.7608570699        4.2427046130
  O        29.7829613351       19.0484588333       12.1617506637
  O        31.0928989056       16.3409135587        4.2254609512
  O        31.0952426295       16.4819519131       12.0777467354
  O        32.2909099847       17.2270252345        2.0013832770
  O        30.8083414612       16.4152485748       14.7430520447
  O        30.7107715348       20.5131837838       14.7436638308
  O        31.3054510089       19.7799467876        2.5022387866
  O        39.4567880248       35.2437628511        4.0019837035
  O        19.1412982588        0.0044360849       11.9905545048
  O        41.9696632117       35.1727678513        4.0873081034
  O        21.6912474849       -0.0694366847       11.8958663117
  O        51.3647615124       18.6143590571        4.0052985094
  O        10.7507929846       18.7472205706       11.9050323292
  O        50.0797194948       16.4127516358        4.0916957462
  O         9.5243976844       16.4831235746       11.9912215568
 Zr         9.2963870438       16.0530040141        6.1821855123
 Zr        49.8357108212       16.0069497231        9.7465988632
 Zr        22.0729086551        0.0293146078        6.1891997401
 Zr        42.4606392724       35.1526921473        9.8006866065
 Zr        29.5686670493       19.0860055555        6.3956362160
 Zr        29.5814579751       19.1731064664        9.9435805572
 Zr        11.0370440944       19.0525762440        9.8276904712
 Zr        11.0429523480       19.1551269108        6.2512008860
 Zr        31.3177987916       16.0976983000        9.9470816270
 Zr        31.3754635106       16.0052329037        6.3654338318
 Zr        18.6006435195       -0.0025040216        9.7636096738
 Zr        18.5062715937       -0.0086843674        6.2134500160
 Zr        12.3008304550       16.3233522321        7.9910774513
 Zr        48.6153566672       18.8329356490        8.0099904010
 Zr        20.3145878533        2.4725115667        7.9909591563
 Zr        40.6423863122       32.6859788409        7.9781456622
 Zr        28.3193555684       16.3390234628        8.1320700370
 Zr        32.6231388676       18.8258984530        8.0967975796
  H        30.8805291066       19.7837398614        1.6047987141
  H        29.9949537618       18.0259676617        0.5662006350
