     571
 i =      240, E =     -4761.6266567316
  C        11.8586547046       14.0536040286        5.7415848485
  C        12.4562145831       12.8906689576        5.0232342822
  C        11.7044654817       12.1716196232        4.0817166212
  C        12.2808437202       11.1094049174        3.3893670907
  C        13.6214761942       10.7397510305        3.6169693526
  C        14.3547239702       11.4434687639        4.5902658639
  C        13.7818273504       12.5084508127        5.2817693307
  C        14.2609902435        9.6490444372        2.8435973235
  C        14.2562753465        9.6569038081        1.4218934158
  C        13.7430099385       10.7589762616        0.6679806378
  C        49.1267266214       21.2331200217        5.8797174625
  C        48.5499144698       22.4010168207        5.1525758873
  C        49.2999915637       23.0684296433        4.1716793615
  C        48.7330617518       24.1075726446        3.4384823167
  C        47.4024947356       24.5091481147        3.6670457890
  C        46.6714807656       23.8601602068        4.6804345621
  C        47.2339204657       22.8152358538        5.4097767849
  C        46.7723018905       25.5868912789        2.8697855064
  C        46.7612983825       25.5572857456        1.4480213893
  C        47.2611165180       24.4421341541        0.7045379626
  C        14.8601990939        8.5705497945        0.7086349428
  C        14.8918132696        8.5971247890        3.5202487630
  C        49.1131434689       21.2033684886       10.1452650330
  C        48.5277589895       22.3647227655       10.8724659412
  C        49.2669921120       23.0253509036       11.8654315542
  C        48.6906958055       24.0598959635       12.5969326339
  C        47.3603139537       24.4567429043       12.3586624282
  C        46.6398780744       23.8118919770       11.3351220773
  C        47.2133950208       22.7759796239       10.6033071860
  C        46.7219383103       25.5317727530       13.1496779321
  C        46.7335686556       25.5281083900       14.5713859701
  C        47.2488658033       24.4288352652       15.3277755558
  C        40.6163037569       17.0904716634       15.3154134523
  C        40.6302044857       17.1081924084       12.5054589070
  C        11.8829206723       14.0866019992       10.2854647344
  C        12.4722239471       12.9107400060       10.9897022482
  C        11.7146491612       12.1775225369       11.9157467670
  C        12.2811895669       11.0950347395       12.5841680425
  C        13.6200167379       10.7213098447       12.3524000614
  C        14.3580347987       11.4368706036       11.3916286317
  C        13.7926533552       12.5180658284       10.7189306039
  C        14.2536047789        9.6245387210       13.1228152996
  C        14.2523444336        9.6444913805       14.5446598883
  C        13.7424438328       10.7534323095       15.2917256778
  C        22.5131036742        3.2449558697        5.7522378794
  C        23.2303503884        4.3482625807        5.0508873815
  C        24.2277897640        4.0634597207        4.1063518796
  C        24.8594499292        5.0992367284        3.4226531197
  C        24.5098818729        6.4430506215        3.6626478939
  C        23.5399848217        6.7194119936        4.6437763834
  C        22.9037974589        5.6852988068        5.3261753080
  C        25.1222766390        7.5460935253        2.8861435121
  C        25.1001912350        7.5371406468        1.4642187106
  C        24.3962379413        6.5397103767        0.7174105897
  C        38.3036811752       31.9304078501        5.8489921277
  C        37.5764608931       30.8405001457        5.1385616373
  C        36.6196060175       31.1431066692        4.1579698883
  C        36.0056183797       30.1216284177        3.4388339909
  C        36.3340291942       28.7732202350        3.6795890317
  C        37.2611054229       28.4781013366        4.6966737614
  C        37.8793197362       29.4982415674        5.4143752885
  C        35.7340019355       27.6805132480        2.8830127583
  C        35.7640233150       27.6951462649        1.4618818652
  C        36.4704757678       28.6966959637        0.7240346628
  C        25.7286482203        8.6043211605        0.7443491852
  C        25.7194702620        8.6212349312        3.5566349286
  C        38.3289481966       31.9622411778       10.1558204582
  C        37.6080018116       30.8882464920       10.8970373666
  C        36.6800671328       31.1955261573       11.9037426351
  C        36.0717902660       30.1758399462       12.6330846121
  C        36.3773973072       28.8238031753       12.3789908363
  C        37.2825120339       28.5264620521       11.3418772973
  C        37.8929515412       29.5426300303       10.6138978417
  C        35.7715642739       27.7239756797       13.1634600749
  C        35.7834221199       27.7173212714       14.5853181963
  C        36.4793434137       28.7076293377       15.3473557990
  C        46.1356858238       26.6208220957       15.2815133936
  C        46.0880818825       26.5801821013       12.4736132254
  C        22.4629246217        3.2557229662       10.2567188852
  C        23.1623248939        4.3628659872       10.9770966843
  C        24.1689270496        4.0734095766       11.9121333776
  C        24.8029292129        5.1011461875       12.6061126752
  C        24.4504515670        6.4480595456       12.3880040169
  C        23.4668976770        6.7308620687       11.4213134748
  C        22.8284835885        5.7033206176       10.7274404502
  C        25.0866894030        7.5432956329       13.1619787798
  C        25.0822381307        7.5352469449       14.5847330374
  C        24.3858194807        6.5399251522       15.3405550331
  C        26.6240862949       17.8654875967        5.7825644922
  C        25.3156053925       17.9139116002        5.0610082269
  C        25.0649254023       18.9023783080        4.0960890420
  C        23.8513370039       18.9261771652        3.4111692793
  C        22.8526939364       17.9638302818        3.6662348593
  C        23.1005586223       16.9984725057        4.6607100216
  C        24.3151086391       16.9700830250        5.3448638525
  C        21.5798521898       17.9497056139        2.9007534309
  C        21.5793508236       17.9265687532        1.4778428055
  C        22.7844248236       17.8012629244        0.7168340277
  C        34.4247925352       17.2208624601        5.9124200419
  C        35.7142677385       17.1516239676        5.1682181039
  C        35.8990741675       16.1979865454        4.1548729666
  C        37.0823807080       16.1722867410        3.4215428492
  C        38.1121227315       17.0986321721        3.6797707632
  C        37.9286796383       18.0309480786        4.7194267909
  C        36.7441500290       18.0621848644        5.4507993560
  C        39.3665595684       17.1015732867        2.8928403588
  C        39.3611499145       17.1183648702        1.4705780933
  C        38.1546040592       17.2508097169        0.7136039400
  C        20.3325526959       17.9437526444        0.7691287097
  C        20.3543112692       17.9518829958        3.5824029945
  C        34.4383695982       17.2386892602       10.1916556008
  C        35.7377563713       17.1396291478       10.9163201093
  C        35.9369932588       16.1710876008       11.9116024863
  C        37.1280801346       16.1417427944       12.6331862535
  C        38.1489033627       17.0794311834       12.3800936910
  C        37.9547945640       18.0207471854       11.3514916897
  C        36.7634309849       18.0556365840       10.6333742722
  C        39.3990463709       17.0965408389       13.1720798002
  C        39.3780331284       17.1157864370       14.5935932008
  C        38.1627273583       17.2470504047       15.3369096245
  C        35.1526628817       26.6389330826       15.2901707084
  C        35.1809898372       26.6531502871       12.4811605220
  C        26.5722930351       17.8294907235       10.3248373793
  C        25.2569037953       17.8757636270       11.0301575442
  C        24.9903398474       18.8856545485       11.9671715002
  C        23.7731901203       18.9116724737       12.6423742890
  C        22.7922267822       17.9284421332       12.4031563189
  C        23.0525711147       16.9440271386       11.4326740011
  C        24.2708778563       16.9153978217       10.7564323782
  C        21.5287154395       17.9116201691       13.1768497560
  C        21.5530817462       17.9063975807       14.5984328578
  C        22.7716069816       17.7921229678       15.3403377881
  C        14.0467250633       17.8289347092       10.2891091831
  C        15.3510213503       17.8865995303       11.0150139067
  C        15.6075139373       18.8914186579       11.9610315371
  C        16.8162726407       18.9135453286       12.6543578786
  C        17.8030986262       17.9336179056       12.4241397027
  C        17.5512056658       16.9527281778       11.4462441354
  C        16.3419289434       16.9261160197       10.7543322890
  C        19.0724481008       17.9186850123       13.1931301051
  C        19.0717236367       17.9193616368       14.6157415613
  C        17.8649463763       17.8219785490       15.3774969443
  C        46.8019159112       17.2170003094       10.1584746388
  C        45.5091973314       17.1485647877       10.9015108940
  C        45.3036721454       16.1651698331       11.8819831081
  C        44.1201776353       16.1381456259       12.6156288740
  C        43.1100723633       17.0944800419       12.3924232316
  C        43.3127047608       18.0572759300       11.3847676844
  C        44.4969858071       18.0881107516       10.6517047665
  C        41.8558535905       17.0989603235       13.1821642116
  C        41.8625052835       17.1001466774       14.6048135053
  C        43.0718532038       17.1935401591       15.3630728870
  C        20.3187164136       17.9324849161       15.3238744264
  C        20.2965196304       17.8977628354       12.5105883439
  C        46.7828392585       17.2305957347        5.8878601582
  C        45.4789612838       17.1209095994        5.1717959462
  C        45.2622043874       16.1199023896        4.2122681892
  C        44.0736109379       16.0869413389        3.4864807706
  C        43.0702433764       17.0518737307        3.7020392556
  C        43.2776343719       18.0227691549        4.7000704598
  C        44.4673544152       18.0620989496        5.4210792726
  C        41.8224718247       17.0694638730        2.9050711083
  C        41.8455254123       17.0837300218        1.4834444676
  C        43.0637925747       17.1829597599        0.7401557798
  C        46.1534099399       26.6372370045        0.7262735269
  C        46.1623875756       26.6560248292        3.5359157059
  C        14.0460358326       17.8326448305        5.7091381319
  C        15.3677034513       17.9096935829        5.0196258805
  C        15.6402043786       18.9270825342        4.0928338965
  C        16.8694393771       18.9673890448        3.4384738955
  C        17.8542109833       17.9895298335        3.6849059742
  C        17.5885928326       17.0011497971        4.6501629450
  C        16.3613313613       16.9603318065        5.3080685365
  C        19.1216888011       17.9673442801        2.9156492983
  C        19.0974157786       17.9430088060        1.4940771436
  C        17.8775319771       17.8325007691        0.7536933092
  C        28.8094701074       14.0826641430       10.3596644330
  C        28.2074648506       12.9091676703       11.0546194601
  C        28.9400173899       12.1669610799       11.9928231938
  C        28.3464869058       11.0929483410       12.6518537609
  C        27.0073997055       10.7354334359       12.3950719496
  C        26.2963976742       11.4579949657       11.4197782265
  C        26.8865957106       12.5332921792       10.7608908600
  C        26.3437144378        9.6534785971       13.1591726706
  C        26.3366999919        9.6763503824       14.5803995120
  C        26.8469780443       10.7857893360       15.3261604386
  C        32.1787722710       21.2414092026       10.1476810086
  C        32.7748970661       22.4050480001       10.8667084818
  C        32.0264442660       23.0881046254       11.8376925244
  C        32.5992292822       24.1263061619       12.5656333163
  C        33.9358021048       24.5095935995       12.3425831593
  C        34.6667939172       23.8456992063       11.3395622395
  C        34.0966254975       22.8016871040       10.6139201204
  C        34.5662347959       25.5843367921       13.1420295830
  C        34.5583664078       25.5558819264       14.5635274588
  C        34.0464942645       24.4425550966       15.3022772615
  C        25.7241328232        8.5997853742       15.2993290368
  C        25.7024154508        8.6053025783       12.4860070360
  C        32.1082291264       21.2328800917        5.8830568058
  C        32.7007848557       22.3815645530        5.1394218557
  C        31.9633257211       23.0535502408        4.1523687641
  C        32.5465067855       24.0799531032        3.4138273837
  C        33.8805859513       24.4665021072        3.6466222282
  C        34.6014701412       23.8096189205        4.6621641178
  C        34.0234977093       22.7758739191        5.3942188599
  C        34.5212576722       25.5464030756        2.8614601615
  C        34.5338047277       25.5371933871        1.4397232939
  C        34.0333253378       24.4339277679        0.6791531068
  C        40.6072721162       17.0868148680        0.7606674966
  C        40.5916547237       17.0935107705        3.5707692493
  C        28.7240468498       14.0947317840        5.7843713759
  C        28.1275505316       12.9375708326        5.0561225614
  C        28.8737999418       12.2345549198        4.0973904716
  C        28.3036421730       11.1667251822        3.4085459488
  C        26.9711482348       10.7765534291        3.6511652955
  C        26.2433897486       11.4653812554        4.6400071654
  C        26.8121742502       12.5320322180        5.3328147796
  C        26.3366025129        9.6810596317        2.8792953391
  C        26.3343187994        9.6908684140        1.4571780236
  C        26.8429912303       10.7941102475        0.7021138668
  C        18.1354598149        3.1810642451       10.3171185591
  C        17.4061035198        4.2782702181       11.0156789246
  C        16.3905113606        3.9998443177       11.9433292668
  C        15.7427046859        5.0397766009       12.6068122459
  C        16.0944205651        6.3835399119       12.3670397961
  C        17.0836206899        6.6531212680       11.4030945536
  C        17.7328007479        5.6158278330       10.7380515922
  C        15.4700764456        7.4912099864       13.1301067206
  C        15.4853588658        7.4904994257       14.5518244825
  C        16.1869593594        6.4969266228       15.3050126434
  C        42.9460247901       31.8595100699       10.0728995034
  C        43.6464082607       30.7718966741       10.8168475716
  C        44.5919029763       31.0932537470       11.8029510171
  C        45.1976696861       30.0877181323       12.5505760435
  C        44.8713392571       28.7346279290       12.3356925341
  C        43.9455916607       28.4202713192       11.3224054936
  C        43.3367157983       29.4253859080       10.5743851161
  C        45.4889180000       27.6553344302       13.1388864120
  C        45.4930894604       27.6810035026       14.5605780704
  C        44.8060759018       28.6891044827       15.3071947158
  C        14.8564151506        8.5630035971       15.2641969736
  C        14.8747688711        8.5629779936       12.4515276242
  C        42.9465298725       31.9615885121        5.8089650445
  C        43.6917838938       30.8854932238        5.0955313586
  C        44.6563844891       31.1913925533        4.1232218124
  C        45.2779098823       30.1718106362        3.4054979666
  C        44.9541721877       28.8214762675        3.6431411986
  C        44.0207277239       28.5238114890        4.6539665910
  C        43.3924766630       29.5405740132        5.3661527003
  C        45.5631838910       27.7240840650        2.8578680100
  C        45.5335282034       27.7174442715        1.4365667625
  C        44.8273201403       28.7077364552        0.6835883329
  C        35.1414943704       26.6284064938        0.7348688516
  C        35.1321606727       26.6043247312        3.5445719632
  C        18.1486346275        3.2470796778        5.7066483180
  C        17.4300016699        4.3439091372        4.9974537327
  C        16.4148456697        4.0526202336        4.0738149267
  C        15.7665298265        5.0832371220        3.3984176961
  C        16.1211541998        6.4284925243        3.6211312792
  C        17.1124281440        6.7118836360        4.5785040437
  C        17.7601194119        5.6829928207        5.2582891456
  C        15.4906271424        7.5241672743        2.8486748031
  C        15.4964645093        7.5074812794        1.4275373611
  C        16.1932088887        6.5057727137        0.6808287295
  H        10.6722805557       12.4656322999        3.9048126549
  H        11.6944951288       10.5508040236        2.6629658781
  H        15.3918221098       11.1690247885        4.7718451196
  H        14.3513492901       13.0718414950        6.0170335884
  H        13.3759322426       11.6310703314        1.2012982275
  H        50.3227232536       22.7484369002        3.9869954763
  H        49.3195801562       24.6229121539        2.6809796861
  H        45.6419457462       24.1608431833        4.8635142682
  H        46.6628335394       22.2898709574        6.1717318020
  H        47.6294984300       23.5756968964        1.2462364917
  H        14.8721856060        8.5884248361        4.6085569331
  H        50.2870113908       22.7024245620       12.0603490957
  H        49.2690926424       24.5752778628       13.3604821991
  H        45.6104700289       24.1091390303       11.1460876890
  H        46.6525296232       22.2538259502        9.8317662736
  H        47.6074983124       23.5516499095       14.7968867258
  H        40.6349990465       17.0717519689       11.4177009585
  H        48.6869567938       14.0950108167        7.7999394332
  H        10.6811609966       12.4665833783       12.0930808987
  H        11.6893238956       10.5246095090       13.2967806310
  H        15.3934792875       11.1589938646       11.2057545845
  H        14.3650333664       13.0874661229        9.9904544770
  H        13.3755292445       11.6220018655       14.7530751552
  H        47.9301122897       14.2182682573        9.7109338401
  H        47.7799232861       14.3734572867        6.4950941250
  H        49.0826868235       18.5518868415       10.8670784229
  H        10.4157936115       14.1344367187        7.9987151758
  H        24.4861015414        3.0236899282        3.9184108948
  H        25.6332647960        4.8769490326        2.6910430626
  H        23.2617630295        7.7535975551        4.8358698147
  H        22.1332986421        5.8904226677        6.0654407330
  H        23.8323329973        5.7845814429        1.2572375103
  H        36.3823255153       32.1860312187        3.9616874922
  H        35.2629876965       30.3587901063        2.6802186622
  H        37.5216550763       27.4393607125        4.8888950598
  H        38.6210923729       29.2793317176        6.1787441751
  H        37.0370956280       29.4456650154        1.2695847904
  H        25.7489897925        8.6070460384        4.6446778420
  H        36.4567069576       32.2394171682       12.1121434915
  H        35.3469288906       30.4192515372       13.4067413592
  H        37.5301114983       27.4866033004       11.1390850497
  H        38.6147202790       29.3184693012        9.8322867188
  H        37.0537609765       29.4645766386       14.8211294559
  H        46.1095351785       26.5875602942       11.3855780949
  H        44.6682796514       35.1161453045        7.8139807134
  H        24.4451082948        3.0343294664       12.0765150737
  H        25.5869376944        4.8695062932       13.3239379142
  H        23.1830903086        7.7662258110       11.2438730732
  H        22.0534886048        5.9190649824        9.9955372428
  H        23.8132922699        5.7855066540       14.8087779994
  H        44.9537615845       34.3902674794        9.6950239452
  H        44.9016853450       34.2068023914        6.4905979797
  H        40.6660656741       33.2091966494       10.8531830332
  H        23.1507729670        1.9577732851        8.0047479270
  H        25.8358282760       19.6434661689        3.8968993940
  H        23.6620381862       19.6996094172        2.6698288289
  H        22.3420960716       16.2462153659        4.8677678412
  H        24.5155888821       16.2106857215        6.0970832217
  H        23.7252245569       17.6809718489        1.2460827267
  H        35.0996502147       15.4902551398        3.9471404774
  H        37.2223591915       15.4251809283        2.6434322639
  H        38.7144840032       18.7551979343        4.9238568800
  H        36.5874427582       18.7976547539        6.2364452596
  H        37.2155295103       17.3869107541        1.2423977732
  H        20.3607219186       17.9928941552        4.6702446980
  H        35.1415935676       15.4588717504       12.1191923863
  H        37.2791315255       15.3878556560       13.4026736226
  H        38.7351086430       18.7517269018       11.1500077392
  H        36.5943517686       18.8015166814        9.8605744050
  H        37.2296241096       17.3782808533       14.7964772198
  H        35.1523419649       26.6786372199       11.3934797517
  H        28.5039314513       21.0807247106        7.9665789317
  H        25.7498443861       19.6432943764       12.1465844930
  H        23.5662625234       19.6988493902       13.3642254864
  H        22.3034625275       16.1782735288       11.2417875330
  H        24.4875017208       16.1431850840       10.0221312954
  H        23.7025287188       17.6652213991       14.7957718210
  H        29.0126058741       21.7206123894        9.7516691609
  H        29.1601781126       21.7469170985        6.6253162839
  H        32.0699012866       18.5743658068       10.9813250119
  H        27.4008507677       19.0757418465        8.0799947428
  H        14.8491179539       19.6509012802       12.1375596395
  H        17.0111651851       19.6993000102       13.3810975217
  H        18.3023524773       16.1879901358       11.2593550148
  H        16.1363721247       16.1555653956       10.0150708740
  H        16.9222646336       17.7058488139       14.8506658035
  H        46.0887937263       15.4347772202       12.0628925359
  H        43.9638260485       15.3672971185       13.3671048258
  H        42.5421339060       18.8044984486       11.2065402937
  H        44.6673585724       18.8464781198        9.8910168493
  H        44.0135522055       17.3049215554       14.8331957103
  H        20.2900934371       17.9244359360       11.4223701072
  H        46.0410570797       15.3813678187        4.0364299149
  H        43.9101215211       15.3093009188        2.7435165716
  H        42.5089663748       18.7728496212        4.8742478461
  H        44.6465503040       18.8311244147        6.1685298290
  H        43.9994871850       17.2850784441        1.2822033734
  H        46.1992224897       26.6825252807        4.6233621621
  H        52.7411072652       21.0626367448        8.1946350397
  H        14.8786710700       19.6799857827        3.9018263452
  H        17.0794567789       19.7593445870        2.7227708923
  H        18.3401289480       16.2396848173        4.8483588919
  H        16.1412556562       16.1842296812        6.0370868028
  H        16.9442597450       17.7243544680        1.2981009513
  H        52.3223816885       21.6732429018        6.2943203876
  H        52.0133154400       21.7021213431        9.4957090605
  H        49.0667310857       18.6072666261        5.2042114518
  H        13.2473823285       19.0164403504        7.9774672674
  H        29.9720414489       12.4452251419       12.1939731134
  H        28.9165378393       10.5180255830       13.3784656468
  H        25.2615518753       11.1922145699       11.2140239129
  H        26.3344045734       13.1125572675       10.0249540021
  H        27.2156150924       11.6527760062       14.7861553434
  H        30.9991258448       22.7806862722       12.0168475975
  H        32.0144997320       24.6549504647       13.3152523044
  H        35.7012082528       24.1329237805       11.1622768331
  H        34.6664264982       22.2634144246        9.8600260120
  H        33.6870163396       23.5746637172       14.7568506689
  H        25.7276544424        8.5885836175       11.3978383179
  H        30.9339138662       22.7551945278        3.9693513287
  H        31.9685833999       24.6002806461        2.6532022070
  H        35.6343710440       24.0975512295        4.8467070815
  H        34.5854966096       22.2452912677        6.1592415360
  H        33.6638307849       23.5592095050        1.2071004267
  H        40.5859871674       17.0536870106        4.6583966028
  H        32.5209311543       14.1431666639        8.2557624966
  H        29.9030704848       12.5333600663        3.9118715568
  H        28.8903806855       10.6176741490        2.6752422785
  H        25.2126538028       11.1762715068        4.8347281889
  H        26.2465183333       13.0789200909        6.0835101360
  H        27.2066802543       11.6682203672        1.2340619719
  H        33.2860579448       14.1717716271        6.4199067632
  H        33.4080675616       14.3998544043        9.6076386588
  H        32.1087178581       18.5338922012        5.1678708145
  H        30.2330148187       14.1923481697        8.0714749917
  H        16.1185728895        2.9633230760       12.1298053430
  H        14.9533272264        4.8203411136       13.3225346173
  H        17.3658566280        7.6860246710       11.2098463103
  H        18.5146844586        5.8185500183       10.0100576422
  H        16.7535220299        5.7395832845       14.7715257404
  H        44.8281172329       32.1403418353       11.9771881690
  H        45.9375041467       30.3415053214       13.3065400286
  H        43.6829957901       27.3781840517       11.1522468903
  H        42.6001767212       29.1899897190        9.8096668866
  H        44.2308108369       29.4369344645       14.7688856116
  H        14.8509944652        8.5462256770       11.3633073877
  H        44.8999514201       32.2340657158        3.9317630344
  H        46.0248373792       30.4130410301        2.6522828268
  H        43.7638523472       27.4840730088        4.8455994362
  H        42.6460654670       29.3177415436        6.1246707654
  H        44.2688768459       29.4706878710        1.2181449167
  H        35.0915515070       26.6164471831        4.6321043298
  H        36.6051262924       35.1340784505        8.1806154060
  H        16.1437848052        3.0130439409        3.9040604447
  H        14.9742479663        4.8563811437        2.6882877413
  H        17.3958860570        7.7473598008        4.7554230449
  H        18.5429608398        5.8934785764        5.9830806589
  H        16.7646792171        5.7555512557        1.2192535271
  H        36.2785863235       34.4826612957        6.2730655392
  H        36.3809830805       34.2091807402        9.4996845755
  H        40.5807088292       33.2029531109        5.1533973761
  H        17.4709158492        1.9476202322        7.9741850602
  H        29.3085521682       19.5032196058       12.5461954905
  H        30.0365064557       19.9389493871        3.7105415666
  H        30.4202112463       15.7445918387        3.8958809957
  H        30.9661789380       15.5272005243       12.3925466559
  H        28.2989737585       18.1247113806       14.7116842060
  H        29.4967999204       16.0085126521       15.0125931153
  H        32.0347714156       18.9578045362        1.2051250080
  H        33.1324017460       16.4859303582        0.9252890702
  H        33.3809205931       18.6685027277       15.2463153197
  H        18.8531063703        0.8691029705       12.3350710205
  H        40.5280092389       35.2292384891        3.9520351694
  H        42.3245357968       34.4194777353        3.5903774664
  H        22.0876788802        0.6914799928       12.3520759338
  H        11.5970962377       18.7128622717       12.3821692655
  H        52.2649866261       18.4308279712        3.6777033921
  H        49.2546196133       16.4769999204        3.5846859351
  H        10.1507966506       15.7981805490       12.2925954799
  H        50.8498932737       17.6925963183        3.9542123574
  H        10.0464022874       17.3946151156       12.0519433317
  H        20.2142341848        0.0021211385       12.0420782644
  H        39.1837374161       36.1245586497        3.6864001339
 Ni        30.9458268363       17.9082147183        2.9977096942
 Ni        31.5839001509       17.1039965569       -0.8265384083
 Ni        30.2192537126       18.7628477645        0.0017976562
 Ni        30.0535638825       17.4565064792       13.1595717504
  O        10.6499119035       14.3651887624        5.4858080018
  O        12.6131719744       14.6575768266        6.5838897620
  O        49.1476733962       16.8459662001        7.9897583764
  O        50.3502019172       20.9358857094        5.6481143096
  O        48.3484739164       20.5932438159        6.6659525089
  O        11.0514521160       17.0539053613        6.5006822017
  O        50.3209402597       20.8816258576       10.4068213083
  O        48.3466814031       20.5866564834        9.3270944843
  O        49.5434858988       18.2483997390       10.0682248236
  O        12.3589579635       18.6245855570        7.9997026418
  O        48.6931958338       14.1486611208        6.7512625915
  O         8.2098341021       14.2104887932        9.3225968271
  O        10.7353250217       14.5067582286       10.6643167821
  O        12.5718063284       14.5828595315        9.3284770240
  O        22.8450015533        2.0434034503        5.4871144915
  O        21.6065848854        3.5931498707        6.5886346434
  O        42.0583216796       34.1375598723        7.9789982986
  O        37.9819349114       33.1384503935        5.5726300303
  O        39.2184790980       31.5765675990        6.6670628214
  O        20.3085716343        1.0399260058        6.5021806986
  O        38.0246746854       33.1857861544       10.4151290497
  O        39.2194026747       31.5839488739        9.3261764509
  O        40.6522979144       33.7694412223       10.0602599917
  O        18.2555300649        1.3763497252        7.9967881357
  O        44.6222103193       35.1005605174        6.7587738967
  O        24.2053943281        0.0000032485        9.3207834626
  O        22.7531827129        2.0574714483       10.5837134888
  O        21.6249412589        3.5965498083        9.3434328482
  O        27.5010665329       18.7524197216        5.4974713280
  O        26.7655266434       16.9336328727        6.6528537165
  O        30.6642815538       19.4058773299        8.0587876095
  O        33.5441677968       16.3309761823        5.6547927458
  O        34.2780506901       18.1799480456        6.7439816568
  O        29.5736707128       17.0711664810        6.5766374768
  O        33.5512612778       16.3404458753       10.4186504569
  O        34.3009421670       18.2391653702        9.4086774837
  O        31.6535299219       18.3136088814       10.1433160487
  O        30.3238380939       15.1595111491        8.0736397528
  O        28.5551735583       21.0340423001        6.8995900888
  O        28.5139058396       20.9574908373        9.4128900959
  O        27.4597109376       18.6795384294       10.6587880703
  O        26.6940647415       16.9299835331        9.4129881398
  O        13.1487707747       18.6930359895       10.5874216631
  O        13.9196293112       16.9163200196        9.4052876410
  O        50.5956877620       19.3500821560        8.0204064548
  O        47.6822485817       16.3272729428       10.4175307419
  O        46.9499648511       18.1755626618        9.3258375152
  O        11.0696061466       17.0155477532        9.4895992153
  O        47.6748299663       16.3358366765        5.6528239849
  O        46.9247941821       18.2356810348        6.6631163828
  O        49.5683383921       18.3176944353        5.9823144821
  O        10.3185282386       15.1002961041        7.9971142941
  O        52.6707488235       21.0278777267        9.2418099602
  O        12.1467852469       20.8911581826        6.6732575941
  O        13.1081209546       18.6137420632        5.3256202985
  O        13.9575847820       16.9872416515        6.6651488410
  O        30.0021283141       14.4328647405       10.6625349289
  O        28.0792943058       14.6569296851        9.4835561094
  O        32.1365474345       16.8610159281        8.0743686023
  O        30.9637205627       20.9520013230       10.4092686946
  O        32.9453510138       20.6035250008        9.3396972167
  O        29.5624169455       17.0779072116        9.5676844273
  O        30.8754244812       20.9519976784        5.6638505619
  O        32.8781993475       20.5879155848        6.6672942874
  O        31.6827324660       18.2573231379        5.9998664713
  O        28.2864290308       18.6773136129        8.0745883644
  O        32.4934748751       14.2119523263        9.3274353586
  O        32.4016718804       14.2165516829        6.8197346014
  O        29.8768455232       14.5103503326        5.4119871801
  O        28.0432694928       14.5849694482        6.7485987775
  O        17.8892677938        1.9666950834       10.6627948832
  O        18.9563464336        3.5271519545        9.4079488446
  O        39.1686887193       34.1389121935        7.9972087635
  O        43.2802084852       33.0589887374       10.3317231612
  O        42.0345831262       31.5064411811        9.2416641992
  O        20.3177820137        1.0369165658        9.4799456215
  O        43.2760566483       33.1826085763        5.5748814648
  O        42.0052947850       31.5841276813        6.5829733062
  O        40.5790813322       33.7751421092        5.9358703165
  O        22.3674282662        1.3848425460        7.9979227241
  O        36.6727794856       35.0998110107        9.2332773371
  O        16.4456007868        0.0643620940        6.6683224593
  O        17.9364904776        2.0434650914        5.3263921648
  O        18.9192068715        3.5931431669        6.6659515117
  O        29.8692737328       19.0491128161        4.0715340730
  O        29.8633970122       18.9168908536       11.9970903570
  O        31.1726611900       16.3469249475        4.0676117071
  O        31.1329779941       16.4071354642       11.9999816571
  O        32.5785689790       15.6769420366        1.0018645309
  O        30.2553439533       16.0522927810       14.4008445993
  O        32.9596734204       18.0905165400       15.9034270503
  O        31.1120102315       19.1238174688        1.5677170997
  O        29.1469289819       18.5451986162       14.4778967886
  O        39.4568818066       35.2439275442        4.0019491391
  O        19.1409575688        0.0045236338       11.9905550064
  O        41.9697569843       35.1730322243        4.0872136200
  O        21.6910877045       -0.0695568899       11.8959534932
  O        51.3650847241       18.6142681489        4.0054463660
  O        10.7511538266       18.7471524262       11.9048698378
  O        50.0791459250       16.4128031164        4.0918197148
  O         9.5248819961       16.4830335326       11.9911953775
 Zr         9.2964837961       16.0528917046        6.1823348377
 Zr        49.8360552628       16.0068320176        9.7466230075
 Zr        22.0734063322        0.0301377607        6.1889794614
 Zr        42.4609883791       35.1535805722        9.8011184495
 Zr        29.6062228609       19.0991556300        6.2787737175
 Zr        29.5799652494       19.1726701080        9.8483548126
 Zr        11.0378084400       19.0519311522        9.8276228164
 Zr        11.0436732296       19.1547901366        6.2511520281
 Zr        31.3415979011       16.1048938039        9.8512651781
 Zr        31.4013863487       16.0271050239        6.2883333335
 Zr        18.6012546200       -0.0010808810        9.7631905741
 Zr        18.5066270034       -0.0072654111        6.2138831232
 Zr        12.3021007050       16.3236626299        7.9902254485
 Zr        48.6154610717       18.8327260856        8.0102113949
 Zr        20.3156929107        2.4740052825        7.9904903837
 Zr        40.6439081261       32.6873410850        7.9783210108
 Zr        28.3341858818       16.3473947676        8.0771274168
 Zr        32.6348164645       18.8485014253        8.0545878381
  H        32.2126280559       15.6960796060        1.9072901153
