     569
 i =      139, E =     -4729.5036994588
  C        11.8589185050       14.0534727327        5.7415666990
  C        12.4564309188       12.8906340127        5.0232385999
  C        11.7047155148       12.1715389676        4.0817089389
  C        12.2811386004       11.1093572410        3.3893781959
  C        13.6217913434       10.7397228837        3.6169780785
  C        14.3550122431       11.4435167541        4.5902462399
  C        13.7820833328       12.5084773677        5.2817454864
  C        14.2612813559        9.6490146821        2.8435991850
  C        14.2563944323        9.6568496669        1.4219027164
  C        13.7432483748       10.7589904000        0.6680090123
  C        49.1269096388       21.2331909235        5.8796671243
  C        48.5501881315       22.4011557946        5.1526436451
  C        49.3001434449       23.0682937693        4.1714555045
  C        48.7332283732       24.1074459167        3.4382561342
  C        47.4027754213       24.5093207418        3.6670308111
  C        46.6719486878       23.8606922049        4.6808133453
  C        47.2343793850       22.8157923616        5.4101799001
  C        46.7724859326       25.5869714982        2.8697346908
  C        46.7615212412       25.5573809161        1.4479684884
  C        47.2616003651       24.4423885209        0.7044228950
  C        14.8602015211        8.5704437765        0.7086313200
  C        14.8921347278        8.5971062277        3.5202473155
  C        49.1133300369       21.2034984825       10.1453396638
  C        48.5280880010       22.3650187813       10.8723049068
  C        49.2671821098       23.0253509645       11.8655863387
  C        48.6909387392       24.0599686919       12.5970251701
  C        47.3607154506       24.4572087857       12.3584577339
  C        46.6405290007       23.8128063099       11.3344332952
  C        47.2139996732       22.7768636770       10.6026434498
  C        46.7222032734       25.5320759072       13.1495626102
  C        46.7338472282       25.5283169308       14.5712759115
  C        47.2493750257       24.4291478451       15.3276608785
  C        40.6188606300       17.0795088121       15.3063434704
  C        40.6250749397       17.1146518675       12.4960531857
  C        11.8829400995       14.0864739086       10.2855607430
  C        12.4721640219       12.9107165192       10.9898153455
  C        11.7146311813       12.1775038066       11.9159236063
  C        12.2811910214       11.0950189491       12.5843017148
  C        13.6200075918       10.7212384814       12.3524672872
  C        14.3580017449       11.4368449987       11.3917057711
  C        13.7926200095       12.5180587106       10.7190507725
  C        14.2535559966        9.6244229472       13.1228398423
  C        14.2523200553        9.6444059281       14.5446768740
  C        13.7425979631       10.7534191004       15.2917558943
  C        22.5088601733        3.2431173861        5.7487982867
  C        23.2183597163        4.3446063546        5.0383795836
  C        24.2116132393        4.0573146910        4.0903662794
  C        24.8399197953        5.0915103403        3.4016066398
  C        24.4903565477        6.4353633224        3.6403474165
  C        23.5219615554        6.7139969279        4.6222590031
  C        22.8894793946        5.6816414315        5.3100328713
  C        25.1053683548        7.5386167549        2.8675225013
  C        25.0938339225        7.5324419402        1.4457474849
  C        24.3992351095        6.5347242218        0.6908112912
  C        38.2980310165       31.9276486940        5.8512327639
  C        37.5567808081       30.8396153623        5.1486014821
  C        36.5927019433       31.1478167884        4.1761105359
  C        35.9619614889       30.1310419356        3.4641047873
  C        36.2794934218       28.7790723400        3.7009327326
  C        37.2129991788       28.4783545072        4.7110500574
  C        37.8478153520       29.4941074413        5.4224959241
  C        35.6687354029       27.6911608141        2.9015777827
  C        35.7109990401       27.7040461339        1.4797894162
  C        36.4235128599       28.7046650513        0.7463949166
  C        25.7251448072        8.6030778170        0.7341489481
  C        25.6983590667        8.6111364703        3.5457235270
  C        38.3298945144       31.9605328372       10.1598186758
  C        37.6126377337       30.8871014697       10.9077319619
  C        36.6792706653       31.1955924604       11.9095356774
  C        36.0695775860       30.1778967423       12.6413177030
  C        36.3781233363       28.8245344874       12.3962228352
  C        37.2917782458       28.5260271180       11.3664626425
  C        37.9032057359       29.5401778842       10.6356228286
  C        35.7647938470       27.7253966770       13.1783988364
  C        35.7598393374       27.7216675116       14.6011041117
  C        36.4451085575       28.7143307671       15.3696852171
  C        46.1356563993       26.6208279360       15.2814608481
  C        46.0881652478       26.5804336690       12.4735643839
  C        22.4685625191        3.2569374695       10.2545833566
  C        23.1798806664        4.3642248437       10.9661401655
  C        24.1934992429        4.0744184474       11.8938706322
  C        24.8366075565        5.1018216069       12.5808841564
  C        24.4870786186        6.4500722963       12.3647548817
  C        23.4979510396        6.7332437759       11.4037714028
  C        22.8507903509        5.7060356576       10.7162758032
  C        25.1235329066        7.5441472688       13.1433170693
  C        25.1037000593        7.5348379106       14.5664404405
  C        24.4017227301        6.5370564661       15.3140734322
  C        26.6039694775       17.8514380019        5.7724737955
  C        25.2972196345       17.9046681887        5.0558269368
  C        25.0409830035       18.8984411652        4.0977121801
  C        23.8287449433       18.9174500285        3.4116087479
  C        22.8372635208       17.9474607500        3.6626415774
  C        23.0888056250       16.9783602364        4.6522680712
  C        24.3032690757       16.9524263092        5.3351261309
  C        21.5669692633       17.9304241880        2.8955429374
  C        21.5710616885       17.9062755309        1.4731546835
  C        22.7783344694       17.7779948913        0.7162621513
  C        34.4433712199       17.1919666662        5.9189116964
  C        35.7401860877       17.1398034776        5.1812099677
  C        35.9525342212       16.1548730604        4.2037349987
  C        37.1312927035       16.1383694542        3.4640473322
  C        38.1308877834       17.1063838712        3.6807190711
  C        37.9228603680       18.0719319437        4.6840658342
  C        36.7408313957       18.0932609673        5.4217967716
  C        39.3816820681       17.1108363759        2.8876495431
  C        39.3706670653       17.1047899079        1.4655499946
  C        38.1588140487       17.2043164219        0.7119584452
  C        20.3261740993       17.9256795771        0.7619643954
  C        20.3412713115       17.9336515240        3.5754335103
  C        34.4387347970       17.2452532058       10.1795702419
  C        35.7355515099       17.1451707901       10.9090532601
  C        35.9637395571       16.1333057067       11.8544343440
  C        37.1521898030       16.1042044936       12.5805421509
  C        38.1452550324       17.0819932951       12.3763804993
  C        37.9253498121       18.0672432485       11.3955745045
  C        36.7347491250       18.1038467908       10.6760454869
  C        39.3969787082       17.0914757495       13.1669513625
  C        39.3783074605       17.0932072119       14.5881183474
  C        38.1623652593       17.1963068033       15.3349782416
  C        35.1224492160       26.6438023994       15.3017348740
  C        35.1815138994       26.6524940582       12.4919406241
  C        26.5730543693       17.8250600584       10.3196587868
  C        25.2600377184       17.8686935753       11.0285896110
  C        24.9998624827       18.8683476244       11.9782661550
  C        23.7827670917       18.8927118184       12.6536035485
  C        22.7963846793       17.9179741211       12.4022770783
  C        23.0512953013       16.9432585235       11.4205323437
  C        24.2692468454       16.9162711968       10.7441206811
  C        21.5317145458       17.8997896640       13.1734449346
  C        21.5525686254       17.8887311234       14.5950627042
  C        22.7688777087       17.7692457890       15.3397684816
  C        14.0475015561       17.8297837765       10.2874904982
  C        15.3532986258       17.8884472314       11.0093456190
  C        15.6115590324       18.8919888615       11.9561750404
  C        16.8215788476       18.9125946061       12.6471556171
  C        17.8074675963       17.9325294231       12.4134833342
  C        17.5545867208       16.9543206387       11.4332484609
  C        16.3440476069       16.9290272636       10.7439102215
  C        19.0755189654       17.9126900551       13.1837088141
  C        19.0710335336       17.9081318102       14.6061414920
  C        17.8621939616       17.8106102779       15.3647124871
  C        46.8019155766       17.2164373418       10.1559647349
  C        45.5066538648       17.1472839972       10.8945266632
  C        45.2964965521       16.1606917703       11.8703881660
  C        44.1113399514       16.1348449849       12.6010298493
  C        43.1053470562       17.0956155066       12.3788646333
  C        43.3118289131       18.0609329734       11.3748205211
  C        44.4979048929       18.0903916511       10.6447479701
  C        41.8523329545       17.1005204816       13.1696302791
  C        41.8626810175       17.0982137200       14.5919524335
  C        43.0744279517       17.1985375033       15.3456982909
  C        20.3162112742       17.9163728516       15.3170796402
  C        20.3010447238       17.8916193806       12.5040876162
  C        46.7863882001       17.2332813853        5.8855922200
  C        45.4864033693       17.1310023163        5.1623657204
  C        45.2698180400       16.1314807895        4.2016582759
  C        44.0838474889       16.1041818122        3.4718364072
  C        43.0847948190       17.0738117349        3.6851258681
  C        43.2931432084       18.0455207054        4.6817905876
  C        44.4799939474       18.0786800380        5.4071737915
  C        41.8363386435       17.0896811091        2.8910087526
  C        41.8548591748       17.0916369205        1.4697509167
  C        43.0706318091       17.1926511866        0.7226511692
  C        46.1533816790       26.6371973285        0.7262272207
  C        46.1624236389       26.6560407302        3.5358731287
  C        14.0439924193       17.8306168606        5.7077393651
  C        15.3623393714       17.9028761958        5.0139871300
  C        15.6332630696       18.9174722741        4.0838543665
  C        16.8605314404       18.9539431266        3.4262315267
  C        17.8436615141       17.9749114892        3.6734876960
  C        17.5792192903       16.9886715885        4.6410836449
  C        16.3540213861       16.9516109223        5.3021763282
  C        19.1107829051       17.9505416319        2.9055745615
  C        19.0895495721       17.9267243870        1.4842066779
  C        17.8712557663       17.8187172222        0.7410479752
  C        28.8327234127       14.1263192885       10.4040144507
  C        28.2409729377       12.9479694146       11.1021092104
  C        28.9675324296       12.2102237423       12.0489632197
  C        28.3776878430       11.1223525302       12.6903229334
  C        27.0479668998       10.7460991824       12.4089962599
  C        26.3438838600       11.4663116702       11.4272450015
  C        26.9296872396       12.5536170742       10.7860757016
  C        26.3806906782        9.6557872387       13.1584479233
  C        26.3525504972        9.6795894383       14.5791851372
  C        26.8426272785       10.7936847182       15.3317419259
  C        32.1804626308       21.2393907396       10.1356264127
  C        32.7774356717       22.4030223898       10.8565963217
  C        32.0301319469       23.0773833426       11.8351357008
  C        32.6001391104       24.1150305294       12.5665316460
  C        33.9341064381       24.5081030298       12.3425483908
  C        34.6636362856       23.8528220738       11.3319697748
  C        34.0960119923       22.8098059408       10.6016131847
  C        34.5601562434       25.5832502351       13.1473550939
  C        34.5389525213       25.5577753734       14.5696986392
  C        34.0252022802       24.4438854215       15.3060703067
  C        25.7351895705        8.6001827182       15.2892958947
  C        25.7487296383        8.6067612825       12.4760029806
  C        32.0722098244       21.2012680998        5.8669870096
  C        32.6393969935       22.3673138585        5.1301621189
  C        31.9130087820       23.0005856261        4.1096680348
  C        32.4855788332       24.0424419108        3.3819853123
  C        33.7982927729       24.4788346959        3.6519260143
  C        34.5041215169       23.8589040172        4.7016086604
  C        33.9371068763       22.8150170660        5.4265188241
  C        34.4423515290       25.5612669072        2.8707170066
  C        34.4777734481       25.5469991297        1.4482051588
  C        33.9949732548       24.4390894021        0.6827579190
  C        40.6143411938       17.0807398826        0.7514186238
  C        40.6082040664       17.1192676638        3.5612741745
  C        28.7405844231       14.0652431083        5.7848043812
  C        28.1296597702       12.9099410058        5.0642441161
  C        28.8639957273       12.2163048886        4.0900214524
  C        28.2865000092       11.1542085956        3.4000890736
  C        26.9569696756       10.7619485328        3.6547810704
  C        26.2405286836       11.4413991616        4.6578953964
  C        26.8179436400       12.5024701463        5.3530458600
  C        26.3177823620        9.6743210908        2.8767404748
  C        26.3202378698        9.6902546188        1.4547083914
  C        26.8246835339       10.8005075438        0.7074006360
  C        18.1354650544        3.1809226441       10.3171228057
  C        17.4059675880        4.2781556026       11.0155883133
  C        16.3902375668        3.9996905959       11.9430681008
  C        15.7424093490        5.0395988523       12.6065838832
  C        16.0942346566        6.3833555938       12.3669729391
  C        17.0835677405        6.6529878008       11.4031844171
  C        17.7327659486        5.6157142709       10.7381107807
  C        15.4698834996        7.4910147798       13.1300836854
  C        15.4851747940        7.4903208074       14.5518087775
  C        16.1866827601        6.4966637543       15.3049694052
  C        42.9457462018       31.8595672917       10.0728050267
  C        43.6461477744       30.7718813351       10.8168218788
  C        44.5915988349       31.0932540172       11.8029411614
  C        45.1973470171       30.0877452614       12.5506316506
  C        44.8710406222       28.7346706193       12.3357193675
  C        43.9452732667       28.4202831396       11.3224761031
  C        43.3364049453       29.4253902154       10.5744214956
  C        45.4887272756       27.6553958393       13.1388821626
  C        45.4928065684       27.6809047746       14.5605843089
  C        44.8055541020       28.6888268031       15.3072249082
  C        14.8563038547        8.5628615115       15.2641955954
  C        14.8746744817        8.5628486821       12.4515220182
  C        42.9463520398       31.9615494697        5.8089901881
  C        43.6915357112       30.8853669075        5.0954297301
  C        44.6564010116       31.1912457555        4.1233974879
  C        45.2779310190       30.1716506215        3.4056711338
  C        44.9538821242       28.8213668451        3.6430729206
  C        44.0200519018       28.5237130026        4.6535180331
  C        43.3917715283       29.5404934257        5.3656760197
  C        45.5629969897       27.7239677446        2.8578373615
  C        45.5332710928       27.7172619669        1.4365374827
  C        44.8268183738       28.7074235323        0.6836201889
  C        35.0942595143       26.6367793066        0.7473996162
  C        35.0503199235       26.6205587824        3.5575473914
  C        18.1488033250        3.2469548098        5.7067287126
  C        17.4302725198        4.3438560352        4.9973946308
  C        16.4148493609        4.0525861725        4.0740588564
  C        15.7665281026        5.0832007766        3.3986454005
  C        16.1214077152        6.4284192310        3.6211047140
  C        17.1130320749        6.7118243043        4.5781030724
  C        17.7606991807        5.6829174269        5.2579039197
  C        15.4908267615        7.5240921450        2.8486576056
  C        15.4964677433        7.5073615837        1.4275150143
  C        16.1930342278        6.5055479715        0.6807844775
  H        10.6725269825       12.4655053620        3.9047921887
  H        11.6948573652       10.5507208553        2.6629539656
  H        15.3921405157       11.1691619128        4.7717913802
  H        14.3516622392       13.0718866658        6.0169498894
  H        13.3764450138       11.6312041790        1.2013178620
  H        50.3227968461       22.7481513708        3.9865771810
  H        49.3197157291       24.6225967223        2.6806010785
  H        45.6425870557       24.1617631148        4.8642329442
  H        46.6634829536       22.2908402547        6.1725570826
  H        47.6303018576       23.5760520084        1.2460565123
  H        14.8726945618        8.5884551697        4.6085590485
  H        50.2870750299       22.7021826942       12.0607845717
  H        49.2692961519       24.5751311809       13.3607528898
  H        45.6113539321       24.1105721176       11.1449434021
  H        46.6533466406       22.2551839694        9.8306325196
  H        47.6083577890       23.5521132102       14.7967705405
  H        40.6265114026       17.0904539930       11.4079310400
  H        48.6872588553       14.0951158254        7.8000287053
  H        10.6811596738       12.4665603409       12.0933257292
  H        11.6894149103       10.5245921757       13.2969833315
  H        15.3934696712       11.1590458594       11.2058423302
  H        14.3650842220       13.0875063562        9.9906812693
  H        13.3759138516       11.6220998445       14.7531298303
  H        47.9301701821       14.2189304085        9.7109003805
  H        47.7801129209       14.3743857252        6.4956170672
  H        49.0832792074       18.5521925837       10.8672848485
  H        10.4163909210       14.1343528834        7.9988805620
  H        24.4701167081        3.0171261492        3.9051992577
  H        25.6122557518        4.8682031796        2.6687730330
  H        23.2437731594        7.7486443346        4.8117883231
  H        22.1212779376        5.8876735955        6.0513942108
  H        23.8321567904        5.7773260759        1.2242025035
  H        36.3622996013       32.1922728935        3.9797460146
  H        35.2153003750       30.3756499299        2.7117509653
  H        37.4664706069       27.4377315340        4.9028248355
  H        38.5938053166       29.2674944328        6.1806640108
  H        36.9838637690       29.4556101001        1.2956525058
  H        25.7235157557        8.5913177608        4.6337494025
  H        36.4508146342       32.2396323803       12.1116899435
  H        35.3393009560       30.4245448238       13.4088700387
  H        37.5438549424       27.4860448361       11.1697958853
  H        38.6293019659       29.3127162212        9.8589050965
  H        37.0228987613       29.4723708257       14.8486532421
  H        46.1096873049       26.5879949737       11.3855317329
  H        44.6681412930       35.1160527058        7.8140322189
  H        24.4674230096        3.0348780453       12.0594475776
  H        25.6240576047        4.8680004264       13.2942797537
  H        23.2150713279        7.7688912852       11.2263469700
  H        22.0711938180        5.9240221882        9.9898720089
  H        23.8364368875        5.7819280270       14.7757086308
  H        44.9531802234       34.3898743901        9.6948826614
  H        44.9014454198       34.2067118218        6.4906596197
  H        40.6656140917       33.2089359398       10.8531545254
  H        23.1507931250        1.9576429133        8.0035855536
  H        25.8018730818       19.6508051923        3.9031865441
  H        23.6355862521       19.6921963558        2.6727318625
  H        22.3342632354       16.2208776048        4.8543035516
  H        24.5103514434       16.1886769653        6.0810116783
  H        23.7182483580       17.6555576242        1.2469010934
  H        35.1755824209       15.4141881738        4.0309283840
  H        37.2934705622       15.3670071780        2.7143297538
  H        38.6862984830       18.8280607813        4.8554547146
  H        36.5634909047       18.8543797170        6.1782188389
  H        37.2200801642       17.3197932006        1.2463009955
  H        20.3456402104       17.9753532178        4.6632194709
  H        35.1988611796       15.3768180698       12.0144141585
  H        37.3258032760       15.3175082942       13.3115954955
  H        38.6856677669       18.8281934021       11.2321356209
  H        36.5451552230       18.8817887446        9.9403850892
  H        37.2257868594       17.3046503238       14.7955855142
  H        35.1634414956       26.6771095277       11.4039878899
  H        28.4990708198       21.0706201151        7.8678465390
  H        25.7637356894       19.6190376987       12.1683720623
  H        23.5810904536       19.6721649539       13.3852111906
  H        22.2979944777       16.1839699934       11.2205891042
  H        24.4815333843       16.1521856261       10.0001769578
  H        23.7014958378       17.6401162452       14.7987047866
  H        29.0127849970       21.7161863096        9.7345525180
  H        29.1969446853       21.7054731251        6.5580875710
  H        32.1080011778       18.6727198672       10.8586487370
  H        27.3751529326       19.0075635103        8.0134247015
  H        14.8534511079       19.6510558492       12.1356590832
  H        17.0181262602       19.6965713418       13.3753516091
  H        18.3056135990       16.1901983342       11.2434157485
  H        16.1370180847       16.1601254772       10.0033900261
  H        16.9206670983       17.6965563054       14.8354194710
  H        46.0795431763       15.4279128455       12.0506556250
  H        43.9508495768       15.3626784672       13.3502774285
  H        42.5441046736       18.8113536987       11.1977335468
  H        44.6729880419       18.8507101959        9.8871089744
  H        44.0136612212       17.3132716998       14.8122493237
  H        20.2974199762       17.9232916344       11.4159874168
  H        46.0460402290       15.3893395057        4.0294821991
  H        43.9182869820       15.3269545165        2.7289280513
  H        42.5274967691       18.7994842650        4.8524062301
  H        44.6613158433       18.8469147956        6.1548651630
  H        44.0072454124       17.3019941742        1.2617971901
  H        46.1992718653       26.6826284714        4.6233172451
  H        52.7414020234       21.0627862039        8.1947273849
  H        14.8724416703       19.6712374797        3.8936072198
  H        17.0708680865       19.7437656524        2.7083016974
  H        18.3303423187       16.2266773405        4.8387002905
  H        16.1339184487       16.1777980314        6.0335507043
  H        16.9365013722       17.7108338122        1.2829918905
  H        52.3232556420       21.6736371742        6.2941016230
  H        52.0140101792       21.7027081109        9.4957859070
  H        49.0684413517       18.6082285595        5.2038288784
  H        13.2477596142       19.0161455061        7.9769867039
  H        29.9936812677       12.4986204625       12.2665395446
  H        28.9436012635       10.5503867888       13.4225195495
  H        25.3161309310       11.1886683985       11.2024658651
  H        26.3813341028       13.1281203533       10.0439206942
  H        27.2061289471       11.6661398006       14.7975252142
  H        31.0058121603       22.7626472411       12.0190568706
  H        32.0135987093       24.6351050177       13.3207059808
  H        35.6957867848       24.1461098379       11.1512349301
  H        34.6664353634       22.2808307408        9.8415248440
  H        33.6779981534       23.5714875975       14.7599032643
  H        25.7865291899        8.5913550525       11.3880994490
  H        30.9063915571       22.6530039941        3.8874567644
  H        31.9141707729       24.5324646814        2.5966905049
  H        35.5200624835       24.1826456702        4.9179995418
  H        34.4910074956       22.3158285627        6.2179022285
  H        33.6248072055       23.5625116460        1.2068432480
  H        40.6061198111       17.0946245682        4.6493177522
  H        32.5064921028       14.1455328182        8.1323356358
  H        29.8868813952       12.5261604906        3.8895823151
  H        28.8636349361       10.6127412406        2.6537569260
  H        25.2117402054       11.1514199893        4.8613865982
  H        26.2604757648       13.0440841418        6.1135516107
  H        27.1727496181       11.6781725311        1.2442893654
  H        33.3111663417       14.2579093166        6.4006101634
  H        33.4130990055       14.3528089611        9.5172133993
  H        32.0920141587       18.4585816438        5.0597521777
  H        30.1891239008       14.1377168641        8.0892242207
  H        16.1182326837        2.9631639362       12.1294310762
  H        14.9529735921        4.8201014636       13.3222243720
  H        17.3659498340        7.6858866605       11.2101177342
  H        18.5147699685        5.8184663203       10.0102538364
  H        16.7531157832        5.7392420501       14.7714535076
  H        44.8277659886       32.1403576978       11.9771495666
  H        45.9371537372       30.3415491054       13.3066166481
  H        43.6826499619       27.3782017473       11.1523424419
  H        42.5998327146       29.1900352469        9.8097159969
  H        44.2301085422       29.4365303588       14.7689260898
  H        14.8509534027        8.5461171622       11.3633001864
  H        44.9001433812       32.2339154727        3.9321419345
  H        46.0250387104       30.4128537893        2.6526259961
  H        43.7627926148       27.4840122961        4.8448282744
  H        42.6449506625       29.3177384629        6.1238200055
  H        44.2682199684       29.4702206114        1.2182444760
  H        34.9974601970       26.6360940380        4.6445611880
  H        36.6051833552       35.1340832597        8.1806372720
  H        16.1435671458        3.0130239652        3.9045544613
  H        14.9740260565        4.8563309681        2.6887646080
  H        17.3967584932        7.7472735255        4.7547538617
  H        18.5437280442        5.8933850110        5.9824985082
  H        16.7644467125        5.7552746491        1.2192029062
  H        36.2788667460       34.4822105071        6.2733953734
  H        36.3806311889       34.2091704892        9.4996458963
  H        40.5785295503       33.2016189394        5.1541847479
  H        17.4714049640        1.9475083235        7.9742014407
  H        29.2376740491       19.5391661063       12.5207323329
  H        28.7669043904       18.8349233865        3.6571075594
  H        31.7955846535       15.7550680389        3.4323565868
  H        31.0882648485       15.6602923517       12.7613966108
  H        28.0985494314       17.9851062819       14.4850006584
  H        29.3840998573       15.2872274283       14.1885925259
  H        32.3807009196       17.2888970016        1.1644724223
  H        18.8534199768        0.8691335808       12.3351622331
  H        40.5280236836       35.2291039202        3.9521966108
  H        42.3229225912       34.4179580188        3.5911455335
  H        22.0878197401        0.6921115566       12.3515759519
  H        11.5969510472       18.7127581124       12.3826488606
  H        52.2655003317       18.4313477055        3.6777536209
  H        49.2551685925       16.4769107986        3.5844693696
  H        10.1503739665       15.7981966140       12.2925687443
  H        50.8506293097       17.6926560487        3.9540578227
  H        10.0462136554       17.3946417314       12.0519191417
  H        20.2146079238        0.0023435806       12.0420565946
  H        39.1833665560       36.1241021246        3.6861457165
 Ni        30.5267436335       17.5704436505        2.5835256232
 Ni        30.9405593274       16.2090954258       -0.2504289835
 Ni        29.7533090622       18.2129847703        0.1702204671
 Ni        30.0151993738       17.4749257997       13.1574662987
  O        10.6500307464       14.3651144434        5.4858785126
  O        12.6132020670       14.6574948480        6.5839493922
  O        49.1477872169       16.8458904772        7.9898055613
  O        50.3502710713       20.9357305666        5.6480592612
  O        48.3485668424       20.5932504957        6.6659468668
  O        11.0519018273       17.0537367219        6.5007453622
  O        50.3210237471       20.8816038918       10.4068550034
  O        48.3467420024       20.5867030049        9.3271523488
  O        49.5435723274       18.2483869355       10.0682805751
  O        12.3591231317       18.6247371661        7.9998065061
  O        48.6932224635       14.1486218229        6.7513049131
  O         8.2098614578       14.2105405306        9.3226057655
  O        10.7351983577       14.5067455819       10.6642997893
  O        12.5717501628       14.5827914241        9.3285673004
  O        22.8441521578        2.0418043827        5.4871609154
  O        21.6061832075        3.5925450420        6.5888228814
  O        42.0578904431       34.1372010328        7.9791861040
  O        37.9812983027       33.1365957076        5.5724190916
  O        39.2170639509       31.5749424564        6.6655948034
  O        20.3083539135        1.0397459548        6.5022852878
  O        38.0243106297       33.1847867925       10.4157145560
  O        39.2184976625       31.5830971279        9.3272857298
  O        40.6521110777       33.7691824345       10.0602183340
  O        18.2561689985        1.3764210816        7.9968466266
  O        44.6221906162       35.1005353043        6.7588164638
  O        24.2053820998        0.0000219768        9.3208328095
  O        22.7536347189        2.0580133299       10.5842395295
  O        21.6260532932        3.5976310492        9.3453410335
  O        27.4839364148       18.7435281385        5.4858654985
  O        26.7551412316       16.9257500456        6.6403278982
  O        30.6320059478       19.3466638099        7.9960745030
  O        33.5926541324       16.2741133649        5.6650336218
  O        34.2717168186       18.1676944435        6.7332798554
  O        29.5967213317       17.0118287761        6.5699116592
  O        33.5456140809       16.3415228877       10.4192608061
  O        34.2948186012       18.2343159425        9.3966793389
  O        31.6500827465       18.3104827978       10.0835143653
  O        30.2943855924       15.1024302224        8.0670237750
  O        28.5512656414       21.0259039619        6.8251690091
  O        28.5130051293       20.9510070250        9.4025512841
  O        27.4589503321       18.6779038668       10.6513391054
  O        26.6956377684       16.9251523676        9.4089830677
  O        13.1488871747       18.6928994434       10.5872787240
  O        13.9191959545       16.9161649891        9.4047643309
  O        50.5962526082       19.3502163524        8.0207569376
  O        47.6817437344       16.3273199194       10.4174312903
  O        46.9504060594       18.1759525719        9.3251291234
  O        11.0696701058       17.0156325252        9.4895943964
  O        47.6758559933       16.3358778402        5.6528331205
  O        46.9260808088       18.2359418331        6.6637790015
  O        49.5687175628       18.3177044256        5.9824118878
  O        10.3187538387       15.1001742098        7.9971309804
  O        52.6707620476       21.0278542104        9.2418242452
  O        12.1468307743       20.8912419778        6.6733329546
  O        13.1071134416       18.6137938607        5.3258215506
  O        13.9567557964       16.9869825360        6.6654673318
  O        30.0166636656       14.5114656600       10.7321738126
  O        28.0964417440       14.6536821872        9.5003638181
  O        32.0754617053       16.8512700973        7.9949938492
  O        30.9658813522       20.9504409306       10.3997430612
  O        32.9467390826       20.5943977526        9.3298684166
  O        29.5655963847       17.0676681058        9.5696667477
  O        30.8496439569       20.8809575227        5.6490328315
  O        32.8669542451       20.5879541885        6.6605429467
  O        31.6738077209       18.2507125485        5.9130382279
  O        28.2674807814       18.6247820625        8.0135039451
  O        32.4921254885       14.2101039060        9.2356392094
  O        32.4031396084       14.2145347186        6.7459672270
  O        29.9052994510       14.4401208441        5.4178875037
  O        28.0475186606       14.5819757554        6.7362894090
  O        17.8892620196        1.9666266422       10.6627953344
  O        18.9564151121        3.5271739589        9.4080106972
  O        39.1684920468       34.1386361039        7.9971663612
  O        43.2801809910       33.0589544096       10.3316952208
  O        42.0344146933       31.5064237193        9.2416035497
  O        20.3176147768        1.0366396153        9.4801203670
  O        43.2760759554       33.1825046960        5.5748976919
  O        42.0052254366       31.5840563278        6.5829971344
  O        40.5788267277       33.7747992655        5.9359504572
  O        22.3673308435        1.3848779711        7.9981803845
  O        36.6728606940       35.0997190960        9.2333053677
  O        16.4457222516        0.0642460025        6.6683035639
  O        17.9365422517        2.0433977859        5.3264353396
  O        18.9192866717        3.5930955534        6.6660471644
  O        29.6674621473       18.6785636381        3.9915216155
  O        29.8316889063       18.9761755158       11.9893254246
  O        31.3815991605       16.4170834152        4.0146016278
  O        31.4356382841       16.3391354638       12.0740383832
  O        31.6855699099       16.6298422244        1.3592067889
  O        30.2360634203       15.7536018946       14.0962437638
  O        28.9812234680       18.3945333970       14.4166327724
  O        39.4567380830       35.2436643432        4.0020152428
  O        19.1414238486        0.0046680377       11.9905129192
  O        41.9695651051       35.1727216056        4.0871683825
  O        21.6914032599       -0.0693193540       11.8959424153
  O        51.3654531387       18.6143545302        4.0054048973
  O        10.7512003692       18.7470601744       11.9049778771
  O        50.0795687083       16.4127591943        4.0917469776
  O         9.5244446632       16.4830828296       11.9911893216
 Zr         9.2978661270       16.0527509660        6.1824398552
 Zr        49.8370752690       16.0069231451        9.7464273635
 Zr        22.0729111364        0.0295366198        6.1892727459
 Zr        42.4607070427       35.1535959699        9.8011139775
 Zr        29.5866449438       19.0393405741        6.1866760021
 Zr        29.5581423700       19.1786970143        9.8294431915
 Zr        11.0387388331       19.0520550552        9.8280406680
 Zr        11.0445393224       19.1548824621        6.2510346593
 Zr        31.3506470312       16.0901946290        9.7203669175
 Zr        31.3661048158       16.0014214017        6.1425374151
 Zr        18.6009085492       -0.0018194190        9.7634292510
 Zr        18.5064966346       -0.0078124419        6.2135660325
 Zr        12.3029549310       16.3235171676        7.9905034507
 Zr        48.6172346426       18.8332919781        8.0104092427
 Zr        20.3158610739        2.4738715191        7.9913220122
 Zr        40.6426527358       32.6865901021        7.9780652956
 Zr        28.3356797013       16.3250273816        8.0643697434
 Zr        32.5982578849       18.8498817626        8.0002605902
  H        29.3032706239       17.7440246616        1.5674665360
  H        32.3460871150       16.5786064878       12.3390708444
  H        29.2343716142       19.4787963210        0.6953364171
