     569
 i =      160, E =     -4729.5197167543
  C        11.8588104220       14.0534773917        5.7415730170
  C        12.4563116088       12.8905919752        5.0232698529
  C        11.7046612030       12.1716447145        4.0815794645
  C        12.2810721794       11.1094578209        3.3892405998
  C        13.6216541941       10.7396753836        3.6169997578
  C        14.3547870694       11.4432826257        4.5904694609
  C        13.7818708404       12.5082507288        5.2819642811
  C        14.2611832288        9.6489985134        2.8436162253
  C        14.2564572234        9.6569141068        1.4219186638
  C        13.7433887287       10.7590883521        0.6680188660
  C        49.1268743979       21.2332330492        5.8796421966
  C        48.5501743013       22.4011890755        5.1526394851
  C        49.3001509263       23.0683674484        4.1714915206
  C        48.7332418880       24.1075226226        3.4383018080
  C        47.4027683864       24.5093561588        3.6670433200
  C        46.6719082554       23.8606792650        4.6807685087
  C        47.2343378491       22.8157737085        5.4101253426
  C        46.7724970395       25.5870110992        2.8697428093
  C        46.7615592928       25.5574184645        1.4479766662
  C        47.2616139356       24.4424024065        0.7044482227
  C        14.8603213253        8.5705363459        0.7086516644
  C        14.8919275886        8.5970277030        3.5202683647
  C        49.1132634930       21.2035073678       10.1453172302
  C        48.5279920708       22.3649471223       10.8723430048
  C        49.2671283401       23.0254090402       11.8655095365
  C        48.6908495871       24.0599986454       12.5969529690
  C        47.3605568561       24.4570813869       12.3585028077
  C        46.6403031196       23.8125163816       11.3346314119
  C        47.2138078227       22.7765976275       10.6028386816
  C        46.7220659074       25.5319739579       13.1495858589
  C        46.7338068708       25.5282836156       14.5712959862
  C        47.2493542384       24.4291272650       15.3276863980
  C        40.6225919852       17.0952337348       15.3134032062
  C        40.6349133073       17.1357258099       12.5028622403
  C        11.8829938971       14.0865038710       10.2855400742
  C        12.4722939461       12.9107465167       10.9897789381
  C        11.7148213492       12.1775753861       11.9159619515
  C        12.2814325018       11.0951217197       12.5843515845
  C        13.6202364409       10.7213383417       12.3524657299
  C        14.3581433167       11.4368795725       11.3915882117
  C        13.7927196437       12.5180628256       10.7189180375
  C        14.2538204394        9.6245527061       13.1228485168
  C        14.2525766490        9.6445526398       14.5446867550
  C        13.7428273202       10.7535569466       15.2917643983
  C        22.5110395986        3.2434693142        5.7521928342
  C        23.2250364329        4.3470805569        5.0495789557
  C        24.2199096311        4.0636304943        4.1022176972
  C        24.8481472748        5.1008091263        3.4178340088
  C        24.4968677433        6.4434496332        3.6607667886
  C        23.5294437968        6.7183716784        4.6445258375
  C        22.8967158806        5.6830120296        5.3274318855
  C        25.1053712987        7.5488523070        2.8860534290
  C        25.0817648388        7.5434413480        1.4643735290
  C        24.3835926399        6.5442655711        0.7143900728
  C        38.2977988780       31.9274760427        5.8515892370
  C        37.5561112899       30.8392357789        5.1500393199
  C        36.5914083325       31.1469003350        4.1779988783
  C        35.9604513159       30.1296886659        3.4668875961
  C        36.2784579225       28.7778132534        3.7039028709
  C        37.2123733884       28.4776709676        4.7138126981
  C        37.8473379617       29.4938490619        5.4244821287
  C        35.6678257405       27.6899791538        2.9044432806
  C        35.7082633105       27.7046728762        1.4826212643
  C        36.4209956230       28.7055471864        0.7497446172
  C        25.7046503060        8.6157177338        0.7479274572
  C        25.7015526712        8.6222087618        3.5600111172
  C        38.3301328053       31.9605902084       10.1602967023
  C        37.6130110160       30.8879155038       10.9092031536
  C        36.6803150997       31.1977231900       11.9112775528
  C        36.0699418424       30.1810287569       12.6438215346
  C        36.3770105953       28.8272353998       12.3992525356
  C        37.2904834722       28.5274258219       11.3696673536
  C        37.9026033916       29.5406004779       10.6380251624
  C        35.7618525639       27.7289506422       13.1812130078
  C        35.7559345959       27.7247901932       14.6039246988
  C        36.4421142418       28.7163532748       15.3730845094
  C        46.1356584242       26.6208263848       15.2814633675
  C        46.0879736670       26.5802851501       12.4735693862
  C        22.4638762604        3.2566693344       10.2569199101
  C        23.1643829026        4.3654854722       10.9758591996
  C        24.1724457902        4.0790132712       11.9103965146
  C        24.8058335064        5.1085489189       12.6030272461
  C        24.4517470969        6.4552161809       12.3849160542
  C        23.4672006602        6.7350303147       11.4181935152
  C        22.8295662484        5.7057460777       10.7255829464
  C        25.0834417267        7.5526424782       13.1613880216
  C        25.0712686441        7.5449508631       14.5845153811
  C        24.3768488199        6.5459085718       15.3374232728
  C        26.6139463125       17.8602904315        5.7796330929
  C        25.3089257075       17.9074638148        5.0560863794
  C        25.0484632875       18.9035916233        4.1015608106
  C        23.8356788513       18.9214061445        3.4156485619
  C        22.8466410470       17.9479309392        3.6635410626
  C        23.1029828648       16.9751074153        4.6482754942
  C        24.3180626575       16.9505655842        5.3306727888
  C        21.5739730191       17.9318388853        2.8990398269
  C        21.5750907153       17.9083367734        1.4766423396
  C        22.7810221541       17.7817242767        0.7173841952
  C        34.4364962208       17.1928616439        5.9234300585
  C        35.7306589508       17.1437976075        5.1792084641
  C        35.9399977794       16.1636216826        4.1964066488
  C        37.1195919697       16.1474627825        3.4574686887
  C        38.1227464907       17.1104231752        3.6809141053
  C        37.9162477625       18.0722953331        4.6879937640
  C        36.7335330552       18.0935645656        5.4245170721
  C        39.3759921473       17.1142169398        2.8914748652
  C        39.3690406501       17.1159436912        1.4694375881
  C        38.1596568405       17.2258889045        0.7133616148
  C        20.3289512432       17.9270000690        0.7674421249
  C        20.3491227959       17.9356029987        3.5809060822
  C        34.4288868647       17.2194734992       10.2183847376
  C        35.7363336194       17.1367734611       10.9297588199
  C        35.9777252497       16.1310634757       11.8785380479
  C        37.1706565757       16.1127114197       12.5957413532
  C        38.1543640857       17.0975027313       12.3813228515
  C        37.9229272609       18.0753476416       11.3959972387
  C        36.7274101700       18.0995668458       10.6827050217
  C        39.4059237589       17.1151510003       13.1712180672
  C        39.3840650035       17.1163451836       14.5923967090
  C        38.1667172650       17.2239751804       15.3364024564
  C        35.1171263608       26.6472298469       15.3038799139
  C        35.1779285231       26.6568209883       12.4941170093
  C        26.5679590315       17.8274146234       10.3232848055
  C        25.2540685957       17.8727227951       11.0294821273
  C        24.9946239455       18.8713516276       11.9804753876
  C        23.7774261185       18.8958459237       12.6552672743
  C        22.7909366747       17.9213565888       12.4033427863
  C        23.0449915695       16.9479514906       11.4201257982
  C        24.2627051172       16.9214668873       10.7432360078
  C        21.5277668308       17.9016487897       13.1766123777
  C        21.5513108805       17.8908101910       14.5982214246
  C        22.7690932523       17.7729927645       15.3409347789
  C        14.0466118804       17.8289829093       10.2887602020
  C        15.3509096669       17.8860397842       11.0137777511
  C        15.6076345977       18.8889454391       11.9617119827
  C        16.8165476018       18.9092757361       12.6546760819
  C        17.8028934215       17.9295071365       12.4219225415
  C        17.5510384752       16.9510987609       11.4416122459
  C        16.3416273136       16.9261430035       10.7502017989
  C        19.0716098603       17.9113314500       13.1913191772
  C        19.0697727057       17.9076967294       14.6137781061
  C        17.8623796738       17.8100302165       15.3745401658
  C        46.8032995625       17.2177219858       10.1574633441
  C        45.5106962946       17.1524902642       10.8999103016
  C        45.3019911854       16.1693311314       11.8795244390
  C        44.1186389782       16.1473876501       12.6130691839
  C        43.1136390135       17.1089146179       12.3898686440
  C        43.3192153195       18.0713258071       11.3828600955
  C        44.5032229956       18.0967956342       10.6498186408
  C        41.8605267974       17.1169091460       13.1795380865
  C        41.8680224093       17.1109377576       14.6018483320
  C        43.0781978358       17.2043007904       15.3590544769
  C        20.3163019380       17.9173056068       15.3224989406
  C        20.2959343646       17.8917185577       12.5095506476
  C        46.7853248069       17.2320390075        5.8874101169
  C        45.4830345627       17.1271134774        5.1687937575
  C        45.2637970475       16.1254111969        4.2109813008
  C        44.0762116934       16.0971294435        3.4837832218
  C        43.0780984726       17.0677585825        3.6969130634
  C        43.2882981217       18.0405417082        4.6921053307
  C        44.4768607924       18.0748340281        5.4146832623
  C        41.8307104274       17.0863812860        2.9010299257
  C        41.8530410402       17.0937821152        1.4798524398
  C        43.0709636857       17.1935685744        0.7359661779
  C        46.1534218429       26.6372290565        0.7262253739
  C        46.1624155560       26.6560730472        3.5358714509
  C        14.0450598065       17.8315264686        5.7086969311
  C        15.3654594377       17.9054166867        5.0178923029
  C        15.6384978287       18.9206138515        4.0889860274
  C        16.8672323419       18.9575502973        3.4338309039
  C        17.8501677924       17.9783800526        3.6819284759
  C        17.5839866557       16.9921968894        4.6491225693
  C        16.3573223881       16.9547200964        5.3078040242
  C        19.1172111760       17.9528721444        2.9131761488
  C        19.0935929983       17.9279899747        1.4917760556
  C        17.8740055478       17.8189816520        0.7507633505
  C        28.7904692069       14.1239930724       10.4026073882
  C        28.1918731428       12.9478072145       11.0961776340
  C        28.9164458195       12.2169811779       12.0496260083
  C        28.3250924978       11.1330316163       12.6948863488
  C        26.9957565524       10.7567396975       12.4124476108
  C        26.2940660230       11.4700642864       11.4238822781
  C        26.8824972390       12.5526845035       10.7763104290
  C        26.3309915311        9.6693715365       13.1672279807
  C        26.3114200953        9.6945302704       14.5882330374
  C        26.8038173202       10.8100286455       15.3375219745
  C        32.1811827111       21.2389333205       10.1419537477
  C        32.7763214120       22.4060335257       10.8583384462
  C        32.0275517067       23.0800461105       11.8359890465
  C        32.5957086440       24.1193304135       12.5662534396
  C        33.9294695829       24.5134141163       12.3429185034
  C        34.6602273402       23.8587454243       11.3328571396
  C        34.0941742261       22.8146079088       10.6028949879
  C        34.5547401750       25.5881316933       13.1486978497
  C        34.5323325452       25.5623026669       14.5711287783
  C        34.0165010434       24.4489126498       15.3069641381
  C        25.7034010412        8.6130375859       15.3030027940
  C        25.7002188939        8.6170933268       12.4894871292
  C        32.0765095289       21.1991741204        5.8748943107
  C        32.6439661463       22.3634371207        5.1338333303
  C        31.9133875294       23.0024014923        4.1201182787
  C        32.4846642286       24.0442270379        3.3911883405
  C        33.8004769788       24.4754465614        3.6536496581
  C        34.5114876435       23.8491379252        4.6959466491
  C        33.9455279305       22.8050745226        5.4217482350
  C        34.4421191915       25.5597590151        2.8726121031
  C        34.4737160361       25.5484719429        1.4499852697
  C        33.9874822784       24.4426744589        0.6837007851
  C        40.6144180577       17.0904348296        0.7583793079
  C        40.6009165694       17.1159715628        3.5683039754
  C        28.7409435244       14.0632968069        5.8174090409
  C        28.1325825365       12.9150833419        5.0820694957
  C        28.8660589765       12.2222839268        4.1068872779
  C        28.2852098516       11.1662654627        3.4090789972
  C        26.9545619301       10.7759560245        3.6612722563
  C        26.2385632598       11.4552026570        4.6646939816
  C        26.8177973459       12.5123268000        5.3639382145
  C        26.3130082478        9.6871465841        2.8861850027
  C        26.3034774576        9.7036952879        1.4643803720
  C        26.7988913348       10.8155296293        0.7134547127
  C        18.1353948058        3.1808187878       10.3171240307
  C        17.4060135166        4.2781066324       11.0156865078
  C        16.3902667813        3.9997291248       11.9431640940
  C        15.7425123056        5.0396926791       12.6066793017
  C        16.0944213995        6.3834194487       12.3670403232
  C        17.0837845900        6.6529726144       11.4032621322
  C        17.7328870717        5.6156396576       10.7381907729
  C        15.4701230091        7.4911295684       13.1301186542
  C        15.4853994583        7.4904505686       14.5518406511
  C        16.1868406503        6.4967582112       15.3050180031
  C        42.9457282656       31.8594938157       10.0728013646
  C        43.6461021663       30.7718057220       10.8168059199
  C        44.5916656992       31.0931522912       11.8028293784
  C        45.1973789703       30.0876274309       12.5505210859
  C        44.8709350377       28.7345680047       12.3357009091
  C        43.9450337390       28.4202056727       11.3225713977
  C        43.3361989514       29.4253286901       10.5745081100
  C        45.4886161868       27.6552991093       13.1388748800
  C        45.4927852948       27.6808782759       14.5605734294
  C        44.8055743184       28.6888344266       15.3072067173
  C        14.8565226254        8.5629949905       15.2642161985
  C        14.8749284194        8.5629624268       12.4515449559
  C        42.9463521355       31.9615181642        5.8089828168
  C        43.6915124984       30.8853620110        5.0954002122
  C        44.6564522175       31.1912572311        4.1234434034
  C        45.2779798652       30.1716701509        3.4057093522
  C        44.9538711134       28.8213862856        3.6430475023
  C        44.0199398407       28.5237172971        4.6533951496
  C        43.3916569133       29.5404895977        5.3655613326
  C        45.5630130540       27.7240011882        2.8578200364
  C        45.5333220023       27.7173053951        1.4365234509
  C        44.8268677002       28.7074619618        0.6836009988
  C        35.0900081870       26.6387223266        0.7496225421
  C        35.0513525073       26.6179081172        3.5599930901
  C        18.1486540608        3.2468728338        5.7067122093
  C        17.4300851816        4.3437803228        4.9973904817
  C        16.4147236189        4.0525051459        4.0739943272
  C        15.7664119330        5.0831340334        3.3985829945
  C        16.1212096411        6.4283570888        3.6211358954
  C        17.1127605975        6.7117449431        4.5782131404
  C        17.7604254271        5.6828377474        5.2580133068
  C        15.4906930561        7.5240565734        2.8486811838
  C        15.4964941048        7.5074036163        1.4275413423
  C        16.1931027267        6.5056013558        0.6808336692
  H        10.6725254361       12.4657327009        3.9045454650
  H        11.6948247914       10.5509409270        2.6626962539
  H        15.3918405834       11.1687570913        4.7721806706
  H        14.3513697565       13.0715267439        6.0173314866
  H        13.3765143678       11.6312707794        1.2013292549
  H        50.3228117461       22.7482409723        3.9866371876
  H        49.3197233001       24.6226888142        2.6806535493
  H        45.6425110020       24.1616711161        4.8641195399
  H        46.6633913504       22.2907748196        6.1724324266
  H        47.6302704018       23.5760535144        1.2460937236
  H        14.8723332223        8.5882916594        4.6085766561
  H        50.2870758885       22.7023632806       12.0606149136
  H        49.2692161923       24.5752704743       13.3605991649
  H        45.6110557924       24.1101149448       11.1452712264
  H        46.6530936984       22.2547864660        9.8309617636
  H        47.6082669781       23.5520553744       14.7968085225
  H        40.6385839338       17.1112328006       11.4147666288
  H        48.6872197754       14.0950685505        7.8000293833
  H        10.6813588474       12.4666395221       12.0934102268
  H        11.6896879927       10.5247202651       13.2970806357
  H        15.3935774523       11.1590199709       11.2056300395
  H        14.3650954099       13.0874521760        9.9904316567
  H        13.3761372004       11.6222324495       14.7531340838
  H        47.9301699119       14.2187519744        9.7108475625
  H        47.7801044792       14.3743371842        6.4955446050
  H        49.0836051721       18.5524523150       10.8672744363
  H        10.4163041086       14.1343521665        7.9987858448
  H        24.4787142450        3.0242129639        3.9130759891
  H        25.6205021687        4.8808604638        2.6840062857
  H        23.2508949946        7.7521961245        4.8379680109
  H        22.1279093909        5.8856984621        6.0690625440
  H        23.8218218861        5.7857900379        1.2518128305
  H        36.3607341863       32.1912214427        3.9812475163
  H        35.2133833378       30.3738071064        2.7147876502
  H        37.4661683297       27.4371863127        4.9059082895
  H        38.5936917458       29.2676611130        6.1824111705
  H        36.9823617306       29.4554383532        1.2993838910
  H        25.7353230872        8.6021836982        4.6478022729
  H        36.4527998725       32.2420653893       12.1128809615
  H        35.3401104543       30.4287683966       13.4114407598
  H        37.5416227559       27.4871132941       11.1735529430
  H        38.6282984778       29.3119974159        9.8612606852
  H        37.0206062606       29.4741717114       14.8525090828
  H        46.1093829299       26.5877679951       11.3855339895
  H        44.6681134206       35.1160435039        7.8139676684
  H        24.4501838603        3.0405397235       12.0762856302
  H        25.5900952870        4.8779064705       13.3209279326
  H        23.1811112505        7.7696335804       11.2398809059
  H        22.0537374037        5.9203855298        9.9942060814
  H        23.8096565911        5.7891217274       14.8033070064
  H        44.9532772388       34.3900431830        9.6950484162
  H        44.9013417953       34.2066227051        6.4906774631
  H        40.6656712449       33.2087702951       10.8530311094
  H        23.1506293202        1.9575532138        8.0049484178
  H        25.8059362888       19.6606897709        3.9118624092
  H        23.6393758273       19.6991548097        2.6807038406
  H        22.3510805714       16.2143971232        4.8481186644
  H        24.5274164681       16.1849685584        6.0740643209
  H        23.7217802454       17.6610164763        1.2468546431
  H        35.1599250919       15.4267768740        4.0204437724
  H        37.2802962341       15.3794239791        2.7039996746
  H        38.6818940797       18.8251446168        4.8638955010
  H        36.5577115970       18.8511536969        6.1847932642
  H        37.2204919840       17.3447999128        1.2461771365
  H        20.3553474931       17.9770740637        4.6687132596
  H        35.2187314650       15.3707294496       12.0472762892
  H        37.3551941348       15.3309737857       13.3293827679
  H        38.6770033678       18.8406971979       11.2242455270
  H        36.5278181413       18.8716155683        9.9432502114
  H        37.2323925870       17.3405294138       14.7947657778
  H        35.1609549457       26.6815011384       11.4061521903
  H        28.5049911223       21.0793674368        7.8855465319
  H        25.7590391174       19.6205727783       12.1736641289
  H        23.5760969194       19.6746827923       13.3876122342
  H        22.2914720235       16.1890090535       11.2197034139
  H        24.4747858514       16.1582046019        9.9983400854
  H        23.7007506348       17.6454790744       14.7978209701
  H        28.9981617326       21.7252820337        9.7484787146
  H        29.1801517457       21.7212437973        6.5577211288
  H        32.0918506533       18.6163666573       10.9698375933
  H        27.3971729098       19.0612960611        8.0738086697
  H        14.8493440680       19.6480819585       12.1401376471
  H        17.0119676249       19.6931844606       13.3832578425
  H        18.3022474981       16.1869053116       11.2528012602
  H        16.1356327723       16.1573803788       10.0092378082
  H        16.9199519224       17.6952291379       14.8469696850
  H        46.0844324731       15.4359025195       12.0597460913
  H        43.9583471684       15.3772607745       13.3644265848
  H        42.5520003090       18.8221933093       11.2055474614
  H        44.6777805728       18.8544346430        9.8894154670
  H        44.0192238188       17.3177212974       14.8284669005
  H        20.2902751996       17.9231752918       11.4214621663
  H        46.0395815578       15.3829647871        4.0381396708
  H        43.9090858009       15.3190303058        2.7421297705
  H        42.5231868034       18.7949992064        4.8629507486
  H        44.6598778097       18.8444168016        6.1605698237
  H        44.0066680575       17.2977468104        1.2776666320
  H        46.1991957530       26.6826381999        4.6233185694
  H        52.7413128579       21.0627496648        8.1946926550
  H        14.8780282400       19.6744025006        3.8973112597
  H        17.0785452083       19.7476899716        2.7165229805
  H        18.3346109925       16.2300519963        4.8480966654
  H        16.1361505149       16.1805382115        6.0384768153
  H        16.9403118831       17.7110606596        1.2945041897
  H        52.3230422372       21.6735259604        6.2941357080
  H        52.0138617794       21.7025865606        9.4957597892
  H        49.0679211116       18.6079822873        5.2038769673
  H        13.2475964366       19.0162191321        7.9773308813
  H        29.9410857089       12.5101234136       12.2683761976
  H        28.8887875003       10.5640184650       13.4310436092
  H        25.2668753789       11.1908270356       11.1984622906
  H        26.3377995129       13.1230609558       10.0279993443
  H        27.1597195559       11.6836832563       14.8001036774
  H        31.0043523199       22.7620471675       12.0208008061
  H        32.0083362574       24.6393024101       13.3198453760
  H        35.6922022788       24.1529752921       11.1526771843
  H        34.6655854042       22.2859816633        9.8433110200
  H        33.6674518630       23.5775068168       14.7603608533
  H        25.7338642488        8.5996587501       11.4015137809
  H        30.9036176737       22.6598782951        3.9048062475
  H        31.9097852765       24.5388374669        2.6113008426
  H        35.5301045334       24.1685021817        4.9062292280
  H        34.5027342924       22.3010721327        6.2077726301
  H        33.6161753230       23.5662475563        1.2072560958
  H        40.5959407707       17.0869044635        4.6562419299
  H        32.5095658275       14.1473461628        8.2250004613
  H        29.8927199528       12.5242373395        3.9133926120
  H        28.8617193643       10.6258381268        2.6614366613
  H        25.2090145579       11.1667574854        4.8666080579
  H        26.2609178488       13.0534745342        6.1251968538
  H        27.1501252909       11.6929551632        1.2487327684
  H        33.3090478315       14.2438101449        6.4675295235
  H        33.4045794065       14.3760136520        9.6049574925
  H        32.1157760905       18.4882712729        5.1514365546
  H        30.1906384538       14.1455702193        8.0865127001
  H        16.1181982463        2.9632192009       12.1295403016
  H        14.9530287684        4.8202555935       13.3222874125
  H        17.3661828625        7.6858567802       11.2101443374
  H        18.5148732131        5.8182989389       10.0102895730
  H        16.7532514204        5.7393134841       14.7715124657
  H        44.8279353130       32.1402431913       11.9769710755
  H        45.9372594237       30.3413954790       13.3064459322
  H        43.6822569074       27.3781443794       11.1525401210
  H        42.5995153101       29.1899815128        9.8099070930
  H        44.2300906819       29.4365061113       14.7689034586
  H        14.8511679422        8.5461968719       11.3633243004
  H        44.9002344768       32.2339272911        3.9322432394
  H        46.0251361563       30.4128688975        2.6527106597
  H        43.7625922799       27.4840212627        4.8446198724
  H        42.6447495429       29.3177115404        6.1236143140
  H        44.2682572502       29.4702538743        1.2182196008
  H        35.0010137329       26.6312613798        4.6471577163
  H        36.6050728161       35.1339296158        8.1806574619
  H        16.1435131897        3.0129350565        3.9044161898
  H        14.9739482596        4.8562609466        2.6886587044
  H        17.3963882136        7.7472056013        4.7549547936
  H        18.5434049872        5.8932829724        5.9826667619
  H        16.7644155960        5.7552699824        1.2192746413
  H        36.2785747130       34.4822443754        6.2733125442
  H        36.3802897604       34.2092657622        9.4997771487
  H        40.5784310955       33.2013246442        5.1542168728
  H        17.4710138626        1.9467951020        7.9741149127
  H        28.9929724536       19.4983683511       12.4523923644
  H        28.8336030592       18.7948527194        3.7294263946
  H        31.3827677510       15.5511935654        3.5430586522
  H        30.9423130548       15.7538949147       12.8556386703
  H        27.7581822159       17.9715427880       14.7671637037
  H        29.2747088094       15.1862676632       14.2083356476
  H        32.3755132243       17.0887160002        1.3229056580
  H        18.8530179534        0.8689039333       12.3351878847
  H        40.5280174682       35.2291638484        3.9521937204
  H        42.3228336259       34.4178497384        3.5911427415
  H        22.0877758978        0.6920911390       12.3514097949
  H        11.5968115032       18.7129268935       12.3825776049
  H        52.2646334089       18.4317454675        3.6768796467
  H        49.2559337182       16.4766694422        3.5841838987
  H        10.1503948844       15.7982395588       12.2925726232
  H        50.8502094885       17.6922574769        3.9542103998
  H        10.0461942369       17.3946810002       12.0519040701
  H        20.2141463790        0.0021735336       12.0420997740
  H        39.1834773059       36.1244136152        3.6863970699
 Ni        30.6087911798       17.6181618778        2.7455634749
 Ni        30.8179917559       16.2768864748       -0.2469010281
 Ni        29.5896504118       18.2130756431        0.2520193172
 Ni        29.9314748310       17.7168319734       13.5759531074
  O        10.6499559381       14.3651119162        5.4858729297
  O        12.6131743554       14.6575124120        6.5839142495
  O        49.1478204939       16.8459015693        7.9897351327
  O        50.3502711154       20.9357825392        5.6480629397
  O        48.3485608556       20.5932695980        6.6659139903
  O        11.0516818076       17.0538514635        6.5007337043
  O        50.3210073952       20.8816170144       10.4068256541
  O        48.3467504380       20.5866919883        9.3271234763
  O        49.5436499139       18.2484030499       10.0682128063
  O        12.3590205936       18.6246701331        7.9997027215
  O        48.6932212743       14.1486183378        6.7513017635
  O         8.2098790607       14.2104878061        9.3225752498
  O        10.7353038382       14.5067483060       10.6643230321
  O        12.5717936282       14.5828076929        9.3285248947
  O        22.8443652614        2.0423775085        5.4872606597
  O        21.6056960689        3.5922394192        6.5894917819
  O        42.0578740455       34.1370837948        7.9790519163
  O        37.9813010789       33.1364732201        5.5724267065
  O        39.2171862773       31.5750318541        6.6656793661
  O        20.3082762106        1.0394303196        6.5021533978
  O        38.0244293887       33.1850029909       10.4156369917
  O        39.2184020909       31.5830274022        9.3274177863
  O        40.6521434055       33.7691494090       10.0601793477
  O        18.2557878763        1.3757338193        7.9968263467
  O        44.6222041689       35.1005103739        6.7587699261
  O        24.2053277941        0.0000315444        9.3208426685
  O        22.7533500168        2.0582349614       10.5842075959
  O        21.6252097732        3.5969484358        9.3440838996
  O        27.4942118737       18.7512280592        5.4933368503
  O        26.7587074293       16.9375583169        6.6521964702
  O        30.6412630207       19.3489533571        8.0622206264
  O        33.5858845429       16.2736430316        5.6709602388
  O        34.2698724516       18.1678434250        6.7393789314
  O        29.5746855747       17.0354707575        6.5864407747
  O        33.5400775240       16.3317100772       10.5008455290
  O        34.2677127323       18.1782946866        9.4034487131
  O        31.6439481055       18.3091184683       10.1652828489
  O        30.2953569358       15.1105696922        8.0838264376
  O        28.5511984289       21.0302871696        6.8352356217
  O        28.5151171983       20.9535380690        9.4073646829
  O        27.4543702479       18.6788908977       10.6574994132
  O        26.6932595632       16.9284612329        9.4125429088
  O        13.1485629664       18.6929875054       10.5874083455
  O        13.9192877568       16.9162514228        9.4050208188
  O        50.5961674176       19.3502052019        8.0204290680
  O        47.6821632811       16.3271908975       10.4173993051
  O        46.9509733982       18.1759326928        9.3249262983
  O        11.0696940604       17.0155999304        9.4896192589
  O        47.6756497901       16.3358178870        5.6528612738
  O        46.9261770565       18.2359166978        6.6638716370
  O        49.5686365303       18.3176937029        5.9822714486
  O        10.3187707832       15.1001856269        7.9970945135
  O        52.6707780261       21.0278744653        9.2418095499
  O        12.1468391013       20.8912026365        6.6732745683
  O        13.1077934981       18.6137064726        5.3257071315
  O        13.9568863734       16.9869763556        6.6655171379
  O        29.9626574052       14.5121552803       10.7449208202
  O        28.0780294959       14.6564538958        9.4889576172
  O        32.0740577942       16.8497300812        8.0745987282
  O        30.9673470859       20.9509995569       10.4068129356
  O        32.9481218328       20.5941840745        9.3357616438
  O        29.5648447733       17.0714639154        9.5802772897
  O        30.8512559613       20.8817818301        5.6576892172
  O        32.8688513542       20.5845525951        6.6659442102
  O        31.6784771255       18.2465218252        5.9859970627
  O        28.2869429621       18.6722032919        8.0721633446
  O        32.4880984752       14.2118782177        9.3200709831
  O        32.4056840673       14.2145783641        6.8260982182
  O        29.9159615849       14.4324816814        5.4886434031
  O        28.0357307173       14.5886212527        6.7492156160
  O        17.8892095739        1.9665538456       10.6627996532
  O        18.9562894957        3.5270885109        9.4079787475
  O        39.1685438878       34.1385477594        7.9971252364
  O        43.2801799613       33.0588979870       10.3316923885
  O        42.0344111243       31.5064277444        9.2415688331
  O        20.3174786831        1.0365229046        9.4802710796
  O        43.2760806492       33.1825045773        5.5749007082
  O        42.0052271731       31.5840763085        6.5829972978
  O        40.5788575166       33.7747484929        5.9358087900
  O        22.3672401984        1.3847130632        7.9981202916
  O        36.6727784365       35.0996934092        9.2333095776
  O        16.4456014452        0.0641529467        6.6682666665
  O        17.9364967658        2.0433502022        5.3264052152
  O        18.9191343588        3.5930877648        6.6660215289
  O        29.7369085440       18.6854941575        4.0786963208
  O        29.7342215295       18.9863910845       12.0762946836
  O        31.2622217790       16.3455946370        4.0929531523
  O        31.4836884722       16.2654152130       12.1465465714
  O        31.5620496855       16.5613183929        1.4336395868
  O        30.1103319715       15.6798451892       14.1448997616
  O        28.5464903001       18.5460090028       14.7364792285
  O        39.4567728644       35.2438660595        4.0020103555
  O        19.1410426738        0.0044369215       11.9905646587
  O        41.9695055800       35.1726424544        4.0871487934
  O        21.6913170501       -0.0693462052       11.8958426949
  O        51.3648355690       18.6143540382        4.0053836999
  O        10.7510525406       18.7471165063       11.9049338520
  O        50.0802336053       16.4127641096        4.0916880251
  O         9.5244686755       16.4831093298       11.9911723674
 Zr         9.2975364748       16.0527809692        6.1824630411
 Zr        49.8368514525       16.0068690033        9.7463961549
 Zr        22.0728867548        0.0293667523        6.1892023311
 Zr        42.4606106650       35.1532928250        9.8009393826
 Zr        29.5991753424       19.0613765807        6.2553022812
 Zr        29.5636354013       19.1808543930        9.8927100738
 Zr        11.0383853351       19.0521126016        9.8278196018
 Zr        11.0443178274       19.1549086654        6.2508492952
 Zr        31.3294389438       16.0903290572        9.8152590340
 Zr        31.3645541170       15.9986805759        6.2331385920
 Zr        18.6007171205       -0.0021835799        9.7634273511
 Zr        18.5063084216       -0.0082651246        6.2134465235
 Zr        12.3026467022       16.3235788820        7.9904034309
 Zr        48.6169598702       18.8333092446        8.0101748795
 Zr        20.3152403609        2.4731876092        7.9909879317
 Zr        40.6424913581       32.6863235487        7.9780504867
 Zr        28.3345988965       16.3387082264        8.0773590583
 Zr        32.6039218717       18.8393295674        8.0426027262
  H        30.2598474900       18.7147375493        1.6481182359
  H        32.4180242776       16.2863185073       12.4208799258
  H        30.8072752810       17.8125953487       15.0628339534
