     573
 i =      188, E =     -4762.7676433883
  C        11.8588050879       14.0534289942        5.7415437910
  C        12.4563074135       12.8905291793        5.0233035891
  C        11.7046400414       12.1715873929        4.0816238687
  C        12.2810657137       11.1094259225        3.3892654771
  C        13.6216375867       10.7396247903        3.6170494692
  C        14.3547950681       11.4432417114        4.5904965222
  C        13.7818556638       12.5081684900        5.2820269220
  C        14.2611957936        9.6490172649        2.8436098487
  C        14.2564492435        9.6569179388        1.4219141129
  C        13.7431650284       10.7590001213        0.6680260376
  C        49.1269075174       21.2332274121        5.8796756019
  C        48.5501972378       22.4011927179        5.1525629708
  C        49.3001587779       23.0684232380        4.1714704515
  C        48.7332253562       24.1075795623        3.4382868873
  C        47.4027625903       24.5093739790        3.6670776903
  C        46.6719042968       23.8606220302        4.6807389090
  C        47.2343590637       22.8157014399        5.4100588393
  C        46.7724711185       25.5870526950        2.8698255482
  C        46.7613010684       25.5573521698        1.4480714774
  C        47.2611339466       24.4422146176        0.7045765914
  C        14.8604612050        8.5706272969        0.7086467182
  C        14.8921105388        8.5971404825        3.5202526029
  C        49.1133215186       21.2035304400       10.1453948649
  C        48.5279693882       22.3648954258       10.8726159887
  C        49.2671195548       23.0255230912       11.8656378661
  C        48.6907695295       24.0600890006       12.5970724494
  C        47.3603903123       24.4569113912       12.3587382718
  C        46.6400630780       23.8121041937       11.3350893648
  C        47.2136332609       22.7761811639       10.6033506650
  C        46.7219025973       25.5318913343       13.1497301022
  C        46.7334844140       25.5281647769       14.5714385898
  C        47.2488316714       24.4289029249       15.3278162393
  C        40.6367592769       17.1504532817       15.3232702418
  C        40.6553919475       17.1807185663       12.5148669098
  C        11.8830237416       14.0864594117       10.2855457175
  C        12.4723943667       12.9107405907       10.9897438451
  C        11.7149275952       12.1774897991       11.9158631663
  C        12.2815797065       11.0950536819       12.5842423800
  C        13.6204493419       10.7214427736       12.3524449416
  C        14.3583869656       11.4370569652       11.3916423347
  C        13.7928811873       12.5181973680       10.7189765925
  C        14.2540908133        9.6247121887       13.1228396255
  C        14.2526822595        9.6446230149       14.5446789582
  C        13.7426646851       10.7534999882       15.2917707767
  C        22.5132119924        3.2446185140        5.7536556721
  C        23.2301152048        4.3492593180        5.0562285733
  C        24.2253887873        4.0686773500        4.1082495546
  C        24.8538317434        5.1079593631        3.4270737358
  C        24.5029610809        6.4501232821        3.6738024763
  C        23.5366732614        6.7220701934        4.6594631018
  C        22.9033933538        5.6847412702        5.3389223578
  C        25.1062900674        7.5575975139        2.8975265247
  C        25.0680021481        7.5548367013        1.4762453845
  C        24.3645580296        6.5554223818        0.7315474225
  C        38.2987990794       31.9283267157        5.8520414703
  C        37.5585927818       30.8390875086        5.1499872547
  C        36.5937103743       31.1454077904        4.1780028228
  C        35.9653646509       30.1269878251        3.4663575751
  C        36.2868383436       28.7761746242        3.7037477504
  C        37.2209059414       28.4771861709        4.7135501632
  C        37.8531922869       29.4946316303        5.4244997946
  C        35.6790295271       27.6873792663        2.9042044529
  C        35.7207379293       27.7019496401        1.4825848332
  C        36.4337217195       28.7030153471        0.7499623590
  C        25.6817959588        8.6294517417        0.7556173268
  C        25.7095570301        8.6294451494        3.5673019612
  C        38.3310872446       31.9615231294       10.1599143873
  C        37.6152560887       30.8880577096       10.9095615795
  C        36.6830864945       31.1971517797       11.9120470457
  C        36.0747739532       30.1796630429       12.6452065839
  C        36.3839062406       28.8266821139       12.3998673729
  C        37.2968416505       28.5273808168       11.3699403379
  C        37.9069916629       29.5414304324       10.6380519906
  C        35.7709012875       27.7276228173       13.1818843398
  C        35.7679689202       27.7223783698       14.6043276774
  C        36.4549087253       28.7136314558       15.3733577387
  C        46.1354925047       26.6208115194       15.2815746512
  C        46.0880169933       26.5802974297       12.4736713445
  C        22.4600031030        3.2566006781       10.2586267429
  C        23.1504016462        4.3664390301       10.9827454025
  C        24.1495549802        4.0833716308       11.9276951676
  C        24.7732134299        5.1155056612       12.6247161746
  C        24.4183031856        6.4608062295       12.3995782101
  C        23.4425937232        6.7369616392       11.4228770243
  C        22.8140883696        5.7052267617       10.7265260399
  C        25.0445731426        7.5615180302       13.1740263802
  C        25.0363094248        7.5565372905       14.5970032267
  C        24.3476973253        6.5571778167       15.3546507922
  C        26.6165196664       17.8588109366        5.7820211616
  C        25.3114877162       17.9026764423        5.0546274925
  C        25.0419982033       18.9082510495        4.1124717865
  C        23.8296505970       18.9243903813        3.4252399222
  C        22.8482419056       17.9402988343        3.6612498509
  C        23.1132676525       16.9572397988        4.6332756534
  C        24.3286350448       16.9340414076        5.3159267172
  C        21.5745682535       17.9256642039        2.8976596111
  C        21.5756507089       17.9065469953        1.4753784825
  C        22.7819295454       17.7851545235        0.7158423830
  C        34.4479204858       17.1946366928        5.9223496040
  C        35.7418806881       17.1461804381        5.1812048098
  C        35.9684746310       16.1563420709        4.2120422133
  C        37.1460756570       16.1532632673        3.4701546581
  C        38.1317015850       17.1357006831        3.6834846321
  C        37.9120311627       18.1036349423        4.6814086241
  C        36.7294318748       18.1144695168        5.4170510214
  C        39.3851085811       17.1490112609        2.8965522243
  C        39.3795705755       17.1603785271        1.4755504365
  C        38.1710594169       17.2728570753        0.7188656303
  C        20.3295843514       17.9238343468        0.7662037187
  C        20.3499827238       17.9271711118        3.5799110782
  C        34.4809480289       17.2459585093       10.1778309121
  C        35.7827781293       17.1774974115       10.9030853201
  C        35.9966074601       16.1941343313       11.8803175492
  C        37.1813875725       16.1783326908       12.6105616006
  C        38.1788701819       17.1458299934       12.3826933143
  C        37.9709080702       18.1051170416       11.3744152963
  C        36.7842205475       18.1255871722       10.6466544969
  C        39.4245327233       17.1659662604       13.1792555634
  C        39.3998554525       17.1722281894       14.6001033347
  C        38.1810221428       17.2784799416       15.3419509590
  C        35.1302045146       26.6444392684       15.3041566842
  C        35.1857031611       26.6561937706       12.4948594054
  C        26.5717965524       17.8268788748       10.3240896272
  C        25.2567687083       17.8699074732       11.0310572790
  C        24.9950349922       18.8719180811       11.9776454897
  C        23.7771282372       18.8973025439       12.6514036582
  C        22.7925391641       17.9201460551       12.4026285480
  C        23.0493486691       16.9424512205       11.4245020384
  C        24.2678250866       16.9152773539       10.7486680035
  C        21.5288500485       17.9011193551       13.1753366422
  C        21.5520697755       17.8911468773       14.5968665251
  C        22.7703586296       17.7768900924       15.3394396646
  C        14.0466773645       17.8286640254       10.2887935575
  C        15.3512336214       17.8851129186       11.0137557167
  C        15.6081532872       18.8869399997       11.9627224580
  C        16.8172892930       18.9065045826       12.6553809034
  C        17.8036724086       17.9271506907       12.4210679894
  C        17.5516493828       16.9497856175       11.4397901018
  C        16.3418983432       16.9255026434       10.7489088879
  C        19.0725956410       17.9086273012       13.1901519462
  C        19.0706529893       17.9038691028       14.6125633741
  C        17.8634051831       17.8035902019       15.3732931315
  C        46.8068203686       17.2205489512       10.1597236239
  C        45.5191470177       17.1654212283       10.9082581723
  C        45.3126644316       16.1936596197       11.8993149386
  C        44.1327489327       16.1844281307       12.6381058593
  C        43.1308826351       17.1469030369       12.4064658111
  C        43.3347633853       18.0983904348       11.3891956508
  C        44.5153928032       18.1118231627       10.6518633420
  C        41.8786178717       17.1648166533       13.1945326472
  C        41.8838877045       17.1655479206       14.6158771186
  C        43.0926827939       17.2614233181       15.3746442457
  C        20.3171144828       17.9150002672       15.3212514633
  C        20.2969901158       17.8901692714       12.5083511641
  C        46.7874307178       17.2316080674        5.8904564863
  C        45.4844404353       17.1298863336        5.1764303113
  C        45.2639888856       16.1363089472        4.2110014030
  C        44.0763296384       16.1174942787        3.4845465323
  C        43.0817504793       17.0891072989        3.7078947543
  C        43.2917982194       18.0512045376        4.7129099479
  C        44.4805830675       18.0766698924        5.4340472612
  C        41.8371730185       17.1195070570        2.9110288579
  C        41.8630102029       17.1397040665        1.4907538109
  C        43.0829390957       17.2465092890        0.7511756720
  C        46.1533018685       26.6372499976        0.7263357320
  C        46.1626644361       26.6562470765        3.5359619160
  C        14.0450175366       17.8307399250        5.7082590215
  C        15.3654248521       17.9026717326        5.0166195379
  C        15.6395553345       18.9166777882        4.0867828596
  C        16.8684039132       18.9517953483        3.4316455912
  C        17.8505675939       17.9720394404        3.6806752265
  C        17.5831573211       16.9867389582        4.6484106013
  C        16.3563279480       16.9510818360        5.3070139317
  C        19.1178801227       17.9458322654        2.9121893204
  C        19.0943260786       17.9222590804        1.4907018157
  C        17.8748762445       17.8119423798        0.7495268501
  C        28.8079005696       14.0914184398       10.3937212722
  C        28.1894192688       12.9218415595       11.0824607395
  C        28.8985517038       12.1973219189       12.0519619790
  C        28.2934504932       11.1255503708       12.7032877917
  C        26.9648748518       10.7553524757       12.4105938057
  C        26.2783384061       11.4609934070       11.4061556503
  C        26.8811678002       12.5325107124       10.7525342289
  C        26.2903103909        9.6785276293       13.1705319600
  C        26.2716230402        9.7085441766       14.5915246644
  C        26.7630722356       10.8270802385       15.3367121261
  C        32.1815752343       21.2431946526       10.1418710387
  C        32.7803491589       22.4073006328       10.8638202666
  C        32.0295174624       23.0898402661       11.8334201802
  C        32.6002834302       24.1279958141       12.5637924875
  C        33.9379504159       24.5118404599       12.3464594894
  C        34.6718665200       23.8471167992       11.3460461417
  C        34.1031194283       22.8035910577       10.6172679631
  C        34.5645767441       25.5869551308       13.1499957177
  C        34.5448721444       25.5601372309       14.5716773002
  C        34.0294931795       24.4458227849       15.3068816465
  C        25.6693897172        8.6270365667       15.3108172509
  C        25.6591874462        8.6240056859       12.4974807034
  C        32.0802430326       21.2021229354        5.8796723447
  C        32.6511038444       22.3658739251        5.1354767835
  C        31.9116823162       23.0277221547        4.1427401755
  C        32.4863336129       24.0644409422        3.4085729164
  C        33.8139106848       24.4718361307        3.6504682438
  C        34.5334446703       23.8254972420        4.6735370850
  C        33.9644097520       22.7839102911        5.4012498690
  C        34.4557785815       25.5569894953        2.8710483638
  C        34.4866298998       25.5460891264        1.4493458590
  C        34.0000299928       24.4400552221        0.6834696730
  C        40.6260608689       17.1408245689        0.7671674878
  C        40.6071362380       17.1456575320        3.5769152481
  C        28.7458710177       14.0713647715        5.8201683492
  C        28.1361916814       12.9245817448        5.0829044274
  C        28.8570393637       12.2584114277        4.0802157391
  C        28.2759166161       11.2014481872        3.3833503448
  C        26.9577098636       10.7863049094        3.6615465344
  C        26.2552746768       11.4416146926        4.6905846755
  C        26.8347806400       12.4977419746        5.3905805761
  C        26.3118214678        9.6978759930        2.8895817526
  C        26.2849928221        9.7180119257        1.4677334058
  C        26.7676498746       10.8328199318        0.7126755136
  C        18.1355390908        3.1810852122       10.3171843142
  C        17.4064249859        4.2783381518       11.0158993322
  C        16.3903469740        4.0000989535       11.9430562869
  C        15.7427041804        5.0401551443       12.6065023130
  C        16.0951040288        6.3838066992       12.3671550108
  C        17.0849832347        6.6532255520       11.4038871194
  C        17.7340056859        5.6158033312       10.7388834871
  C        15.4707227926        7.4915081991       13.1301598933
  C        15.4858637040        7.4907426426       14.5518670605
  C        16.1874890808        6.4971641173       15.3050149060
  C        42.9458762336       31.8596593715       10.0728696002
  C        43.6462964967       30.7719336912       10.8168188358
  C        44.5916270080       31.0933131919       11.8030526237
  C        45.1973766876       30.0877922897       12.5507338485
  C        44.8711857949       28.7346956397       12.3357388689
  C        43.9456242301       28.4203030029       11.3222882978
  C        43.3367879649       29.4254181489       10.5742198175
  C        45.4887467230       27.6553942578       13.1389482533
  C        45.4928504091       27.6809753388       14.5606478067
  C        44.8058551337       28.6890699108       15.3072926616
  C        14.8567579364        8.5631518586       15.2642231512
  C        14.8754788496        8.5632721462       12.4515481969
  C        42.9464994717       31.9617706347        5.8089945204
  C        43.6918526012       30.8856009312        5.0955951698
  C        44.6563394390       31.1915367946        4.1232108729
  C        45.2779025862       30.1719711491        3.4054729287
  C        44.9543205644       28.8216335301        3.6432342360
  C        44.0210508503       28.5239401583        4.6542085316
  C        43.3927694293       29.5406888266        5.3664024591
  C        45.5632748122       27.7242132001        2.8579432280
  C        45.5334381313       27.7174590171        1.4366455699
  C        44.8271691087       28.7077196184        0.6836849240
  C        35.1031715452       26.6359897376        0.7493934842
  C        35.0639611249       26.6144297179        3.5596899154
  C        18.1487123443        3.2470616152        5.7065381692
  C        17.4302405976        4.3438766952        4.9971884249
  C        16.4147514617        4.0526917382        4.0738986077
  C        15.7664623439        5.0833733724        3.3985841308
  C        16.1215405103        6.4285441262        3.6210195027
  C        17.1133539418        6.7118541032        4.5778334794
  C        17.7610340124        5.6828884713        5.2575227172
  C        15.4909398908        7.5242353034        2.8486458594
  C        15.4968094307        7.5076044923        1.4275212541
  C        16.1936544927        6.5059568171        0.6808275961
  H        10.6724989010       12.4656614769        3.9045992193
  H        11.6947954788       10.5508949506        2.6627493071
  H        15.3918400407       11.1686887552        4.7722270714
  H        14.3513336905       13.0713889568        6.0174502967
  H        13.3761010490       11.6311061866        1.2013306241
  H        50.3228169177       22.7482836454        3.9866262886
  H        49.3196763649       24.6227852789        2.6806431724
  H        45.6424998926       24.1615815065        4.8640908274
  H        46.6634427031       22.2905630295        6.1722950721
  H        47.6296590620       23.5758312076        1.2462558628
  H        14.8726069243        8.5884099281        4.6085605888
  H        50.2871507727       22.7026510136       12.0605894518
  H        49.2691209039       24.5755159423       13.3606261235
  H        45.6107123968       24.1094586700       11.1459067268
  H        46.6528990742       22.2540840001        9.8316807868
  H        47.6075857105       23.5517792218       14.7969047425
  H        40.6615835576       17.1479975928       11.4270884961
  H        48.6870958389       14.0948624505        7.8000340750
  H        10.6814119454       12.4664215403       12.0932229281
  H        11.6898251836       10.5245627557       13.2968948409
  H        15.3938720518       11.1593075234       11.2057725726
  H        14.3652468964       13.0876190290        9.9905096190
  H        13.3758155688       11.6221127153       14.7531429442
  H        47.9302581083       14.2179014771        9.7110062805
  H        47.7800763671       14.3733042668        6.4952307874
  H        49.0844055674       18.5527458552       10.8676691572
  H        10.4162698736       14.1342123594        7.9987717191
  H        24.4838797362        3.0298818874        3.9152848086
  H        25.6252111700        4.8901185317        2.6915788368
  H        23.2589069344        7.7554161359        4.8565349954
  H        22.1349236266        5.8857457482        6.0813392870
  H        23.8080851761        5.7959540571        1.2729736955
  H        36.3612987566       32.1894339497        3.9816692953
  H        35.2182267314       30.3693429043        2.7137580261
  H        37.4771982040       27.4372152930        4.9050888031
  H        38.6001788403       29.2705972524        6.1824297981
  H        36.9947444482       29.4528889754        1.2999699298
  H        25.7560746186        8.6063655998        4.6545792258
  H        36.4547221877       32.2413435465       12.1135062948
  H        35.3453190805       30.4261876668       13.4135756381
  H        37.5492309925       27.4873543079       11.1739292487
  H        38.6327826947       29.3143809273        9.8609316835
  H        37.0330677175       29.4714790053       14.8523737752
  H        46.1096121824       26.5877888060       11.3856363443
  H        44.6685441724       35.1163532672        7.8138844985
  H        24.4284700858        3.0458835717       12.0975122953
  H        25.5518188774        4.8886722452       13.3498850354
  H        23.1570791868        7.7708144609       11.2394959806
  H        22.0449595159        5.9162353089        9.9871477458
  H        23.7776805672        5.7996212515       14.8246439038
  H        44.9545873797       34.3911432632        9.6957049244
  H        44.9024788004       34.2070606170        6.4906454828
  H        40.6669228715       33.2098045308       10.8535084358
  H        23.1502741331        1.9584173396        8.0056484136
  H        25.7910260331       19.6771474758        3.9369282787
  H        23.6260744517       19.7098006905        2.7004066008
  H        22.3675696220       16.1880267760        4.8237706972
  H        24.5444967799       16.1609457781        6.0497676237
  H        23.7221739609       17.6664769966        1.2464135411
  H        35.2092644357       15.3947576197        4.0508566612
  H        37.3199064531       15.3807872565        2.7241442457
  H        38.6676657845       18.8680669945        4.8503824422
  H        36.5409463118       18.8759838928        6.1702875302
  H        37.2307590905       17.3849153305        1.2511761676
  H        20.3563334458       17.9656760445        4.6678296114
  H        35.2147736993       15.4605789183       12.0632186812
  H        37.3479849556       15.4124833908       13.3649289375
  H        38.7360086506       18.8577292015       11.1953840313
  H        36.6003289977       18.8826108676        9.8879266505
  H        37.2481924008       17.3944128627       14.7977573328
  H        35.1667790636       26.6814214582       11.4069579341
  H        28.5068616482       21.0866053027        7.9705176599
  H        25.7593683118       19.6222302068       12.1674101140
  H        23.5731824175       19.6789992704       13.3800042025
  H        22.2976528188       16.1808371261       11.2273175004
  H        24.4825163495       16.1488018144       10.0077998358
  H        23.7017613503       17.6520396281       14.7953023304
  H        28.9932806945       21.7248148365        9.7684431842
  H        29.1541966846       21.7437753050        6.6154500757
  H        32.1130570280       18.5726649195       10.9625226223
  H        27.4008909199       19.0712790952        8.0735336681
  H        14.8498270638       19.6457853942       12.1422580633
  H        17.0128023601       19.6894646229       13.3849593652
  H        18.3028330250       16.1858446771       11.2498026473
  H        16.1356530572       16.1575106486       10.0072113325
  H        16.9212443940       17.6874197047       14.8455140623
  H        46.0935901203       15.4595616644       12.0833075186
  H        43.9715800265       15.4234121803       13.3984404985
  H        42.5685146206       18.8490626582       11.2071872737
  H        44.6907853833       18.8604284737        9.8828820233
  H        44.0340491373       17.3783447566       14.8453417380
  H        20.2914108268       17.9212063996       11.4202501293
  H        46.0389870129       15.3947059901        4.0312592688
  H        43.9063343202       15.3478529802        2.7348160186
  H        42.5273783012       18.8046273799        4.8909934629
  H        44.6667479205       18.8385402514        6.1869028621
  H        44.0167878122       17.3508996433        1.2959003697
  H        46.1997137564       26.6828828070        4.6233968426
  H        52.7412096245       21.0626008470        8.1947182926
  H        14.8798537758       19.6710662235        3.8943575956
  H        17.0803584406       19.7410854522        2.7135975339
  H        18.3328005576       16.2238035663        4.8480949790
  H        16.1343436702       16.1776164132        6.0382094288
  H        16.9413775172       17.7020357951        1.2931886750
  H        52.3224335644       21.6732705764        6.2942760035
  H        52.0132618766       21.7020631913        9.4956447053
  H        49.0679999264       18.6079822504        5.2040976276
  H        13.2477250850       19.0160233858        7.9772490087
  H        29.9206253481       12.4897049903       12.2823791626
  H        28.8452387414       10.5625216435       13.4528762098
  H        25.2519473369       11.1854803244       11.1726344721
  H        26.3484346795       13.0986767439        9.9924964389
  H        27.1130079418       11.7013653265       14.7963235867
  H        31.0018333709       22.7803199208       12.0085508451
  H        32.0122433741       24.6575641791       13.3102506482
  H        35.7073000143       24.1331466445       11.1725160799
  H        34.6754611902       22.2649894648        9.8653726452
  H        33.6818042847       23.5758533404       14.7571027335
  H        25.6938832109        8.6015951612       11.4096680924
  H        30.8862165046       22.7132688041        3.9592922654
  H        31.9058505461       24.5802033846        2.6464420110
  H        35.5601373297       24.1286450472        4.8682747015
  H        34.5271093300       22.2638131875        6.1728539369
  H        33.6317983327       23.5644106685        1.2104596007
  H        40.5999051697       17.1074591068        4.6645371602
  H        32.5180705090       14.1407645833        8.2576451712
  H        29.8716840761       12.5853428913        3.8633191272
  H        28.8436232010       10.6806525845        2.6153418942
  H        25.2353406586       11.1345887362        4.9128317194
  H        26.2885903116       13.0188529314        6.1732349323
  H        27.1196822899       11.7117519031        1.2447364592
  H        33.3032307881       14.1985863430        6.4514649913
  H        33.4103127329       14.3991897429        9.6099021557
  H        32.1388272681       18.5157647923        5.1824862434
  H        30.2178906367       14.1839848172        8.0753825643
  H        16.1179230136        2.9636439417       12.1291696160
  H        14.9529655525        4.8209294502       13.3218883105
  H        17.3679658375        7.6860296353       11.2111923227
  H        18.5164889589        5.8183941813       10.0114952764
  H        16.7542280211        5.7399726842       14.7714963383
  H        44.8277620424       32.1404152646       11.9773366210
  H        45.9371415349       30.3416369738       13.3067498672
  H        43.6832450023       27.3781854337       11.1519587320
  H        42.6004862527       29.1900642908        9.8092557629
  H        44.2306733942       29.4369677216       14.7689872631
  H        14.8519197026        8.5465903529       11.3633207413
  H        44.8997675998       32.2342296008        3.9316678588
  H        46.0247473102       30.4132755962        2.6521977420
  H        43.7643835987       27.4841786959        4.8459928102
  H        42.6464883663       29.3178951885        6.1250631851
  H        44.2688691897       29.4707576014        1.2182646503
  H        35.0141512904       26.6267886013        4.6468967777
  H        36.6054694500       35.1341018466        8.1806964088
  H        16.1433736750        3.0131524003        3.9044579007
  H        14.9739154179        4.8566440254        2.6887162161
  H        17.3973576178        7.7472565450        4.7543140311
  H        18.5443488827        5.8933136923        5.9818250629
  H        16.7652423969        5.7558438553        1.2192782199
  H        36.2791255206       34.4821913993        6.2731100144
  H        36.3816961516       34.2087498784        9.4993022984
  H        40.5798286259       33.2023879686        5.1536667117
  H        17.4711617249        1.9475625440        7.9741780789
  H        29.0578927647       19.3137518433       12.4464610539
  H        28.8034855604       18.9126597148        3.8135941058
  H        32.3511446464       16.1174607371        3.7299955781
  H        31.2933669709       15.5070679528       12.4844629786
  H        27.9917009179       18.0140547319       14.6098716270
  H        29.3982278357       15.2127029165       14.5012939766
  H        30.8627361148       20.7812332656        1.2164684491
  H        28.4870177987       17.6798598418        1.5037600957
  H        32.1775314859       18.4340456755       14.5725344424
  H        18.8545937251        0.8693360722       12.3352823819
  H        40.5281368656       35.2287440446        3.9519709976
  H        42.3248583328       34.4197576635        3.5897904897
  H        22.0878123524        0.6923259024       12.3514205077
  H        11.5969305357       18.7129619123       12.3826449377
  H        52.2647950047       18.4312072337        3.6770265161
  H        49.2554070422       16.4766967435        3.5843951183
  H        10.1502363472       15.7980453133       12.2926908676
  H        50.8500089564       17.6923453487        3.9542542534
  H        10.0461741061       17.3943489804       12.0519802140
  H        20.2163139306        0.0026015066       12.0417299374
  H        39.1839176602       36.1244971959        3.6865914525
 Ni        30.3538321979       17.2806939898        2.9968866898
 Ni        31.1121447967       16.3499729032       -0.2476955164
 Ni        29.8444806998       19.1366343385       -0.4133529999
 Ni        30.1828034819       17.4234139332       13.0778972775
  O        10.6499634054       14.3650747476        5.4858520267
  O        12.6131997561       14.6574759258        6.5839033860
  O        49.1482511780       16.8458346936        7.9897738753
  O        50.3503234505       20.9358517349        5.6480451479
  O        48.3486143131       20.5933970963        6.6659258013
  O        11.0518847431       17.0537656914        6.5006712144
  O        50.3210970220       20.8816920882       10.4068943148
  O        48.3467849509       20.5868602229        9.3272096545
  O        49.5438606775       18.2484355559       10.0683673261
  O        12.3591277085       18.6246138991        7.9997277816
  O        48.6933135110       14.1484839058        6.7513251064
  O         8.2098931949       14.2103533062        9.3225460563
  O        10.7353951709       14.5067582129       10.6643209120
  O        12.5718350938       14.5827967097        9.3285096313
  O        22.8445541217        2.0429662945        5.4872683591
  O        21.6057088856        3.5921716324        6.5895228530
  O        42.0582322131       34.1375026288        7.9789381141
  O        37.9811760768       33.1365048138        5.5723630162
  O        39.2174384631       31.5751468654        6.6660546207
  O        20.3084765547        1.0395587457        6.5021410656
  O        38.0244898762       33.1851814589       10.4157442060
  O        39.2186708507       31.5832001656        9.3271548412
  O        40.6523268419       33.7693567868       10.0601247772
  O        18.2556623098        1.3761445284        7.9967778916
  O        44.6222346860       35.1005579779        6.7587700401
  O        24.2054016560        0.0000521675        9.3207505491
  O        22.7529251243        2.0582708208       10.5840267388
  O        21.6242970802        3.5958542786        9.3423516470
  O        27.4950456647       18.7528639884        5.4930004156
  O        26.7613757986       16.9378672569        6.6531061910
  O        30.6723445539       19.4028823369        8.0575109086
  O        33.5926541905       16.2751051429        5.6654839385
  O        34.2772404728       18.1673662133        6.7335677149
  O        29.5769838967       17.0561767444        6.5781526676
  O        33.6261817957       16.3286999214       10.4063452803
  O        34.3067292939       18.2490778815        9.4041714654
  O        31.6605642666       18.3096182952       10.1450258945
  O        30.3218333591       15.1495939638        8.0877192970
  O        28.5527547874       21.0329702149        6.9002103356
  O        28.5115414562       20.9604936737        9.4093793021
  O        27.4568816673       18.6782527508       10.6579922588
  O        26.6942310583       16.9283589466        9.4115707089
  O        13.1489066030       18.6928619327       10.5874956698
  O        13.9193493322       16.9161801491        9.4049380877
  O        50.5965525642       19.3504131719        8.0206078710
  O        47.6833966892       16.3270901271       10.4173298462
  O        46.9525873237       18.1761832301        9.3239886775
  O        11.0698580756       17.0154626099        9.4897144050
  O        47.6766413415       16.3353752476        5.6531870058
  O        46.9296052811       18.2357833485        6.6659153173
  O        49.5689619070       18.3177127246        5.9823167323
  O        10.3186691994       15.1000470262        7.9970984027
  O        52.6707955486       21.0278901718        9.2418379606
  O        12.1468646846       20.8911988878        6.6732026932
  O        13.1082067797       18.6135683550        5.3256002652
  O        13.9569886901       16.9868753530        6.6655776864
  O        29.9915087454       14.4414120866       10.7313856650
  O        28.0890234609       14.6536715874        9.4947195798
  O        32.1424388111       16.8533598499        8.0757556348
  O        30.9687025762       20.9574149398       10.4047264224
  O        32.9494067210       20.6016992165        9.3373401869
  O        29.5697229272       17.0721050594        9.5757714791
  O        30.8548252724       20.8897248639        5.6575034209
  O        32.8729419712       20.5856343504        6.6645575221
  O        31.6799888344       18.2511383493        5.9950897582
  O        28.2869999624       18.6744872782        8.0703640172
  O        32.4949178234       14.2112294758        9.3306780611
  O        32.4071902649       14.2116079408        6.8269187541
  O        29.9175702437       14.4439154870        5.4906694816
  O        28.0380128147       14.5918866248        6.7551231230
  O        17.8892364926        1.9666351101       10.6628047014
  O        18.9562219040        3.5271404092        9.4079563572
  O        39.1685833853       34.1387019087        7.9971695414
  O        43.2802084324       33.0589788329       10.3317109307
  O        42.0344273095       31.5064647471        9.2416310022
  O        20.3178010213        1.0368851438        9.4800006685
  O        43.2760891376       33.1826223757        5.5748623205
  O        42.0052415627       31.5841443818        6.5829784427
  O        40.5789353511       33.7749696576        5.9358542222
  O        22.3674637161        1.3847076870        7.9978788738
  O        36.6728338707       35.0997130416        9.2333517058
  O        16.4456898673        0.0642214853        6.6682519451
  O        17.9365250154        2.0433575996        5.3263975340
  O        18.9190777316        3.5931408359        6.6658938496
  O        29.7379098761       18.8322606049        4.0838168487
  O        29.8232265530       18.9839637598       11.9315591841
  O        31.4642187124       16.2586474822        4.1006497739
  O        31.4300191011       16.3409637490       11.9894586103
  O        29.4515866960       17.5891895392        1.4144792465
  O        30.2072771960       15.6806857799       14.2372474195
  O        31.3055704482       18.0394283589       14.7356684583
  O        31.0760643686       19.8575212572        0.9920441053
  O        28.7661565996       18.4667155908       14.2379083172
  O        39.4567699389       35.2437090827        4.0019976909
  O        19.1424776445        0.0049077699       11.9904201073
  O        41.9694197544       35.1726678601        4.0870996528
  O        21.6913899073       -0.0692486600       11.8959675382
  O        51.3650592527       18.6142887530        4.0053951417
  O        10.7512043710       18.7471814072       11.9049501508
  O        50.0798172448       16.4128422239        4.0917102451
  O         9.5244344821       16.4829962994       11.9912178047
 Zr         9.2973858833       16.0525811972        6.1825344473
 Zr        49.8365329009       16.0065163799        9.7463419352
 Zr        22.0737557788        0.0307462539        6.1886343626
 Zr        42.4613796168       35.1543701649        9.8009614907
 Zr        29.6046875358       19.0879281697        6.2899168072
 Zr        29.5819451680       19.1815669241        9.8430434247
 Zr        11.0384551291       19.0517931846        9.8277806413
 Zr        11.0442223301       19.1547005834        6.2510251834
 Zr        31.3590446936       16.0943361352        9.8712568642
 Zr        31.3936546683       16.0022668032        6.2993642857
 Zr        18.6017285640       -0.0005748331        9.7634632259
 Zr        18.5070435645       -0.0070615315        6.2137965600
 Zr        12.3022713129       16.3233932742        7.9904390346
 Zr        48.6174637785       18.8332427582        8.0104531144
 Zr        20.3159475628        2.4745452665        7.9903617202
 Zr        40.6439821285       32.6878694716        7.9780719065
 Zr        28.3460930293       16.3342995266        8.0884271455
 Zr        32.6343635042       18.8347909592        8.0599209526
  H        30.7430796288       19.3311418906        1.7661899026
  H        28.7401906419       19.9217338925        0.0851359910
  H        31.0109848230       15.1421107083        0.5740791542
