     568
 i =      120, E =     -4744.3430949028
  C        11.8585959762       14.0534762278        5.7415756600
  C        12.4560641565       12.8904668436        5.0233673532
  C        11.7045902449       12.1719710709        4.0812006642
  C        12.2809746903       11.1097749641        3.3888422349
  C        13.6213593559       10.7395398575        3.6170288198
  C        14.3542384770       11.4426138159        4.5910894634
  C        13.7813524978       12.5075752218        5.2826124534
  C        14.2609784194        9.6489540456        2.8436116429
  C        14.2564366798        9.6569739256        1.4219093977
  C        13.7433444058       10.7591163293        0.6679748056
  C        49.1267068094       21.2332600735        5.8796853144
  C        48.5500358257       22.4011174980        5.1526337145
  C        49.3000769567       23.0684586756        4.1716282667
  C        48.7331415647       24.1075955756        3.4384535298
  C        47.4025856665       24.5092709615        3.6670480821
  C        46.6716278056       23.8603657632        4.6805529568
  C        47.2340714213       22.8154675890        5.4099070621
  C        46.7723909011       25.5869854816        2.8697674641
  C        46.7616079613       25.5574687916        1.4480011334
  C        47.2616168477       24.4424295620        0.7044788517
  C        14.8604539346        8.5706784062        0.7086406479
  C        14.8916667085        8.5969326205        3.5202522287
  C        49.1130256142       21.2035566501       10.1454046338
  C        48.5277168169       22.3648495582       10.8724540388
  C        49.2670291345       23.0257176808       11.8652366800
  C        48.6906881357       24.0602608452       12.5966671705
  C        47.3601882323       24.4569018025       12.3585894058
  C        46.6396912538       23.8118258582       11.3352203204
  C        47.2132393181       22.7759234819       10.6034374635
  C        46.7217868981       25.5318622520       13.1496463526
  C        46.7337830715       25.5283045947       14.5713449780
  C        47.2493308842       24.4291408567       15.3277182312
  C        40.6213643930       17.0913735593       15.3100648852
  C        40.6305592693       17.1085872925       12.5004558947
  C        11.8828381538       14.0864067976       10.2854005971
  C        12.4721157736       12.9105514423       10.9895668118
  C        11.7148061381       12.1777718959       11.9161842554
  C        12.2813742032       11.0953235074       12.5846273467
  C        13.6199849940       10.7211080776       12.3523240212
  C        14.3576575754       11.4361326901       11.3908670185
  C        13.7922519652       12.5172924033       10.7181545162
  C        14.2536891757        9.6244691758       13.1227924596
  C        14.2525814681        9.6445885037       14.5446338001
  C        13.7427937175       10.7535725069       15.2917186915
  C        22.5140244972        3.2437776601        5.7539445350
  C        23.2351834091        4.3463342527        5.0559406346
  C        24.2352332832        4.0599972391        4.1147514759
  C        24.8703108121        5.0949318732        3.4331881769
  C        24.5211783296        6.4388274254        3.6724517860
  C        23.5491878695        6.7167974682        4.6508650405
  C        22.9096007580        5.6834958023        5.3311279628
  C        25.1336904674        7.5411809689        2.8957089491
  C        25.1063758305        7.5329042102        1.4741082538
  C        24.4017866002        6.5345599623        0.7290900545
  C        38.2978272238       31.9286744678        5.8520125783
  C        37.5553967091       30.8421530846        5.1501167530
  C        36.5895844436       31.1528864758        4.1802471496
  C        35.9565144950       30.1377365585        3.4686623063
  C        36.2738931681       28.7853430452        3.7030852066
  C        37.2095725957       28.4820815987        4.7103927858
  C        37.8464797035       29.4962670927        5.4218638118
  C        35.6578145450       27.7005803802        2.9048823702
  C        35.6864788043       27.7202005252        1.4828481518
  C        36.3985579394       28.7194741851        0.7471080285
  C        25.7301884562        8.6018780649        0.7533229966
  C        25.7339017455        8.6148875638        3.5652178633
  C        38.3267870098       31.9607003846       10.1594310381
  C        37.5990351167       30.8930317581       10.9065736242
  C        36.6698761525       31.2134556517       11.9090756874
  C        36.0461611248       30.2046210867       12.6413005128
  C        36.3346479114       28.8468179966       12.3962479729
  C        37.2440797556       28.5363712643       11.3658789680
  C        37.8705422445       29.5420928653       10.6349537086
  C        35.7068389211       27.7560544942       13.1803332844
  C        35.7115392485       27.7486767671       14.6034232777
  C        36.4105353013       28.7331630464       15.3702237240
  C        46.1357636431       26.6209187013       15.2814972485
  C        46.0875923987       26.5800835149       12.4736023626
  C        22.4616125678        3.2553792967       10.2577061790
  C        23.1583648328        4.3624590934       10.9810324467
  C        24.1633292096        4.0728349798       11.9177425542
  C        24.7949705709        5.1002352125       12.6143988210
  C        24.4417253827        6.4471235074       12.3972664255
  C        23.4594669162        6.7300695095       11.4291989419
  C        22.8234329323        5.7028541534       10.7327162547
  C        25.0770980904        7.5425213125       13.1715679100
  C        25.0779038935        7.5327810869       14.5945264814
  C        24.3865405738        6.5353189109       15.3522386724
  C        26.6183302734       17.8615513214        5.7798566406
  C        25.3134881065       17.9034002773        5.0515700837
  C        25.0422268879       18.9088113640        4.1095917346
  C        23.8297759984       18.9228600423        3.4221939981
  C        22.8496011729       17.9374046335        3.6585834799
  C        23.1163799602       16.9547995212        4.6304392227
  C        24.3319365162       16.9334329851        5.3128267147
  C        21.5752722243       17.9212393622        2.8960833750
  C        21.5757763554       17.8994701370        1.4739639410
  C        22.7815392700       17.7763298147        0.7138053820
  C        34.4419820441       17.1964332629        5.9191916854
  C        35.7362668741       17.1445056079        5.1779557046
  C        35.9619015504       16.1503726831        4.2128459168
  C        37.1402061864       16.1407523715        3.4721165550
  C        38.1284629067       17.1221275757        3.6795742889
  C        37.9093705504       18.0952436257        4.6729021283
  C        36.7264481633       18.1116665240        5.4087028850
  C        39.3807915207       17.1293078886        2.8890183517
  C        39.3710149175       17.1245652319        1.4672654909
  C        38.1602681247       17.2305517196        0.7129303770
  C        20.3294416642       17.9169144553        0.7654607294
  C        20.3510490560       17.9243291004        3.5791086083
  C        34.4400248327       17.2406683428       10.1909613990
  C        35.7409863781       17.1409569589       10.9126343917
  C        35.9542893939       16.1502147067       11.8827415969
  C        37.1446293356       16.1189977296       12.6049397515
  C        38.1512103341       17.0774309642       12.3766925813
  C        37.9452653908       18.0411336607       11.3719033510
  C        36.7540552654       18.0774745203       10.6533347832
  C        39.4011488832       17.0921417584       13.1692635051
  C        39.3814240593       17.1062059673       14.5907286662
  C        38.1652495220       17.2207304962       15.3358919863
  C        35.0708943666       26.6736455208       15.3060820124
  C        35.1034028730       26.6928129234       12.4961108106
  C        26.5693839084       17.8253241745       10.3242563898
  C        25.2557181370       17.8672624916       11.0316660374
  C        24.9898055967       18.8714725302       11.9745882027
  C        23.7717160238       18.8945226668       12.6478215317
  C        22.7907843395       17.9132817254       12.4015765159
  C        23.0511203942       16.9334983365       11.4264718023
  C        24.2700205025       16.9083639490       10.7515843094
  C        21.5271341415       17.8932088451       13.1742526239
  C        21.5510298112       17.8826309001       14.5956222498
  C        22.7697146099       17.7674271000       15.3374027647
  C        14.0458418074       17.8282830838       10.2888192388
  C        15.3501835516       17.8833452864       11.0145207083
  C        15.6081758283       18.8853506576       11.9628646732
  C        16.8172982298       18.9036443551       12.6556040485
  C        17.8021202910       17.9227694867       12.4215954718
  C        17.5489226124       16.9449575772       11.4411852745
  C        16.3392372837       16.9220223145       10.7502888743
  C        19.0712112904       17.9030018032       13.1901145162
  C        19.0698125518       17.8978517055       14.6124489324
  C        17.8627055356       17.7989196307       15.3736194477
  C        46.8023978952       17.2163418834       10.1569571993
  C        45.5089766879       17.1470178565       10.8972099635
  C        45.3033926098       16.1644250384       11.8782475418
  C        44.1194194623       16.1383103431       12.6106470421
  C        43.1099199466       17.0945358668       12.3848539454
  C        43.3119832818       18.0556183964       11.3757169913
  C        44.4969318060       18.0857396732       10.6441502812
  C        41.8569843400       17.1000500056       13.1752973701
  C        41.8661752195       17.1044617357       14.5974480682
  C        43.0769996817       17.2059534420       15.3523963744
  C        20.3164832613       17.9077052562       15.3205960782
  C        20.2952034838       17.8834944575       12.5076399383
  C        46.7858861334       17.2331064735        5.8864745861
  C        45.4851150589       17.1321273450        5.1659709778
  C        45.2656695751       16.1342696183        4.2041950375
  C        44.0789537163       16.1106856238        3.4756827834
  C        43.0821065694       17.0822735083        3.6910532073
  C        43.2927646147       18.0512249045        4.6898912307
  C        44.4802557269       18.0807902233        5.4140546861
  C        41.8345673199       17.1029302268        2.8962246700
  C        41.8549283802       17.1049392817        1.4750324607
  C        43.0718153755       17.2033455778        0.7293504083
  C        46.1535554687       26.6373294328        0.7262551229
  C        46.1622370919       26.6559927246        3.5359123140
  C        14.0448636825       17.8305318269        5.7082298542
  C        15.3656958389       17.9018504904        5.0164222831
  C        15.6409993886       18.9161524013        4.0873052266
  C        16.8700409970       18.9505476841        3.4322768331
  C        17.8512161615       17.9697025469        3.6808011528
  C        17.5826511771       16.9839681311        4.6477309865
  C        16.3556406827       16.9491128285        5.3061738289
  C        19.1185365179       17.9423065720        2.9120026489
  C        19.0944955011       17.9170804980        1.4905255671
  C        17.8746412943       17.8075995638        0.7498405818
  C        28.8105418578       14.0906658640       10.3900379670
  C        28.1965180621       12.9176530308       11.0790122299
  C        28.9307974892       12.1601529453       12.0037181962
  C        28.3349971451       11.0839799534       12.6568034251
  C        26.9912306592       10.7395839241       12.4067277235
  C        26.2776878894       11.4775589647       11.4456242501
  C        26.8710464971       12.5550978986       10.7923473204
  C        26.3285923211        9.6552632609       13.1676047882
  C        26.3266400995        9.6767986011       14.5884912402
  C        26.8356792452       10.7876434033       15.3332834777
  C        32.1351071031       21.2380276691       10.1848578418
  C        32.7059372469       22.4177856572       10.8999163344
  C        31.9606742107       23.0823695565       11.8859155557
  C        32.5219621580       24.1372328365       12.6002428942
  C        33.8458481881       24.5518489395       12.3551317279
  C        34.5709839343       23.9067099376       11.3353560545
  C        34.0111097869       22.8512483687       10.6195284196
  C        34.4775298118       25.6271507252       13.1538474552
  C        34.4730898542       25.5942522434       14.5760406868
  C        33.9667302722       24.4766658940       15.3122902911
  C        25.7198438767        8.5981082839       15.3083684000
  C        25.6877110793        8.6071415522       12.4946819725
  C        32.0776930538       21.2037134408        5.8787318731
  C        32.6420602489       22.3712266908        5.1403418017
  C        31.9045603898       23.0181114210        4.1366856278
  C        32.4721572931       24.0611718833        3.4070047121
  C        33.7916032040       24.4871219195        3.6594326962
  C        34.5095982236       23.8541683386        4.6928601619
  C        33.9471463436       22.8082432975        5.4189421805
  C        34.4284670775       25.5730836968        2.8770130258
  C        34.4458396677       25.5677455059        1.4542015372
  C        33.9524473003       24.4646473208        0.6890180213
  C        40.6154843841       17.0965949045        0.7549130904
  C        40.6056997264       17.1355433531        3.5651959637
  C        28.7484088197       14.0681336633        5.8201300886
  C        28.1443360830       12.9178537864        5.0832065557
  C        28.8811136786       12.2372074324        4.1018236110
  C        28.3090069546       11.1757493179        3.4046648622
  C        26.9833525353       10.7703955733        3.6607810853
  C        26.2641544990       11.4401983799        4.6685853245
  C        26.8353240590       12.5005384474        5.3696450571
  C        26.3467309501        9.6771945165        2.8875402745
  C        26.3361235487        9.6891370054        1.4654182648
  C        26.8367589909       10.7954245827        0.7092712916
  C        18.1354380545        3.1807783442       10.3170432452
  C        17.4061135125        4.2781413114       11.0157255084
  C        16.3904719248        3.9997516572       11.9432909342
  C        15.7427194646        5.0397128155       12.6068311925
  C        16.0945431474        6.3834308049       12.3670937578
  C        17.0838068209        6.6529877198       11.4032256079
  C        17.7329154809        5.6156563763       10.7381458130
  C        15.4702235595        7.4911588553       13.1301356331
  C        15.4856533963        7.4906265196       14.5518547764
  C        16.1872484789        6.4970426923       15.3050317855
  C        42.9457072969       31.8594126588       10.0728453162
  C        43.6460276557       30.7717264925       10.8168168260
  C        44.5918790254       31.0930557988       11.8025820706
  C        45.1975574173       30.0875158826       12.5502706676
  C        44.8707768227       28.7344906028       12.3357112854
  C        43.9445612649       28.4201388286       11.3228697916
  C        43.3357474164       29.4252795935       10.5748063765
  C        45.4884844334       27.6552411139       13.1388976168
  C        45.4928914118       27.6809607595       14.5605946753
  C        44.8058043541       28.6889981114       15.3072285215
  C        14.8566828962        8.5631363590       15.2641996727
  C        14.8747947846        8.5628358596       12.4515385171
  C        42.9462829606       31.9614776186        5.8090300929
  C        43.6914391866       30.8853273939        5.0954677074
  C        44.6564808643       31.1912300136        4.1236070931
  C        45.2780130125       30.1716493270        3.4058770158
  C        44.9537992915       28.8213643944        3.6430913924
  C        44.0197323769       28.5236864761        4.6533104896
  C        43.3914531979       29.5404529728        5.3654932148
  C        45.5629943135       27.7240111289        2.8578584439
  C        45.5334703456       27.7174136669        1.4365535173
  C        44.8271065327       28.7076319156        0.6836233555
  C        35.0575640827       26.6594747016        0.7518821393
  C        35.0456572379       26.6274423629        3.5625628046
  C        18.1486772874        3.2468652085        5.7066973736
  C        17.4299946497        4.3438185779        4.9974286923
  C        16.4148311761        4.0525036020        4.0738447678
  C        15.7665156451        5.0831244639        3.3984105617
  C        16.1211259655        6.4283584409        3.6211467986
  C        17.1124267591        6.7117618632        4.5784716978
  C        17.7601245540        5.6828702069        5.2582747290
  C        15.4906518743        7.5240794190        2.8486811775
  C        15.4966744070        7.5075712462        1.4275361777
  C        16.1934708251        6.5058820448        0.6808478584
  H        10.6726054935       12.4664032165        3.9038288971
  H        11.6948155810       10.5515977956        2.6619648102
  H        15.3910692842       11.1675694447        4.7732885956
  H        14.3505957333       13.0703794675        6.0185355653
  H        13.3762876880       11.6312333992        1.2012630808
  H        50.3227808578       22.7484358068        3.9868586054
  H        49.3196108747       24.6228711693        2.6808739010
  H        45.6421170752       24.1610932860        4.8636998719
  H        46.6629731711       22.2902802961        6.1719730129
  H        47.6300781324       23.5759975104        1.2461219364
  H        14.8718222392        8.5880294483        4.6085556717
  H        50.2871255935       22.7029969698       12.0600681901
  H        49.2690851084       24.5758310395       13.3600863507
  H        45.6101956150       24.1088657484       11.1463244602
  H        46.6522555755       22.2536522621        9.8320665933
  H        47.6080298956       23.5519786434       14.7968419516
  H        40.6331802451       17.0754367993       11.4125971101
  H        48.6870167042       14.0949898671        7.8000240068
  H        10.6814882151       12.4671636073       12.0939632971
  H        11.6897059411       10.5252457839       13.2976798954
  H        15.3928758723       11.1577834961       11.2044358701
  H        14.3643820581       13.0862349910        9.9891303975
  H        13.3759302853       11.6221749155       14.7530907147
  H        47.9300841091       14.2184757458        9.7107865094
  H        47.7799111754       14.3734686319        6.4952439400
  H        49.0825825971       18.5520906003       10.8670400873
  H        10.4158347684       14.1343785693        7.9987560579
  H        24.4923106042        3.0197979184        3.9275568835
  H        25.6457475362        4.8720630206        2.7034781080
  H        23.2720475803        7.7514468907        4.8419586972
  H        22.1371569527        5.8891361941        6.0682095896
  H        23.8413974784        5.7779140511        1.2704459071
  H        36.3597558049       32.1978281722        3.9860321235
  H        35.2079584972       30.3834569234        2.7186029684
  H        37.4626314145       27.4409446133        4.8998817269
  H        38.5939530233       29.2683706067        6.1781715340
  H        36.9681861667       29.4648336433        1.2944286263
  H        25.7685941726        8.5984076057        4.6530532556
  H        36.4558343181       32.2604456248       12.1115222302
  H        35.3202954215       30.4621052132       13.4094916681
  H        37.4813071087       27.4929952901       11.1685734946
  H        38.5930734852       29.3036730303        9.8580402526
  H        36.9903866966       29.4885125931       14.8475899143
  H        46.1086625729       26.5873469757       11.3855593982
  H        44.6681067404       35.1159934808        7.8139752358
  H        24.4402645111        3.0338002386       12.0811598732
  H        25.5781649940        4.8683004175       13.3330007807
  H        23.1748948821        7.7653560257       11.2525373525
  H        22.0495375376        5.9187007652        9.9996747394
  H        23.8137792837        5.7799035430       14.8221328762
  H        44.9531939339       34.3898362928        9.6948377366
  H        44.9011087744       34.2064525290        6.4907308508
  H        40.6649197946       33.2082909559       10.8527803143
  H        23.1507615310        1.9571818098        8.0055188537
  H        25.7891576571       19.6804095901        3.9362835900
  H        23.6243127210       19.7085373471        2.6981201494
  H        22.3714893624       16.1849492529        4.8215959798
  H        24.5487396704       16.1610183062        6.0470794784
  H        23.7216231729       17.6579921884        1.2446472728
  H        35.1995624561       15.3919521406        4.0526216211
  H        37.3117462227       15.3646652865        2.7293992441
  H        38.6648784803       18.8607376998        4.8376341714
  H        36.5399514494       18.8785610210        6.1569390939
  H        37.2212494544       17.3531456757        1.2453786224
  H        20.3579085575       17.9647613760        4.6669595017
  H        35.1706151438       15.4198676372       12.0692961344
  H        37.3069122395       15.3486909347       13.3556616179
  H        38.7156518014       18.7875651872       11.1899371253
  H        36.5752078603       18.8403300076        9.8995997292
  H        37.2298112752       17.3365975253       14.7958711380
  H        35.0769459483       26.7205134727       11.4083832137
  H        28.5099467149       21.0847032461        7.9593724272
  H        25.7498152012       19.6262773075       12.1626636844
  H        23.5647207737       19.6776564548       13.3739813477
  H        22.3018020044       16.1691475101       11.2309117987
  H        24.4875233483       16.1405719486       10.0129329340
  H        23.7008620548       17.6429181851       14.7926196011
  H        28.9886746078       21.7227403356        9.7748758056
  H        29.1581151091       21.7400430030        6.6095159600
  H        32.0783310312       18.5214993748       10.9911149641
  H        27.4073600139       19.0782771849        8.0790952034
  H        14.8507549614       19.6452489542       12.1418115084
  H        17.0139861282       19.6867791544       13.3846798030
  H        18.2990336940       16.1798125339       11.2518686581
  H        16.1316224841       16.1539277555       10.0090930510
  H        16.9202670285       17.6838250237       14.8460874475
  H        46.0889445567       15.4349324122       12.0608202978
  H        43.9622352448       15.3691947209       13.3637069233
  H        42.5410663239       18.8020679873       11.1958065740
  H        44.6683188593       18.8428840732        9.8825147928
  H        44.0169975491       17.3187035803       14.8198371845
  H        20.2890462122       17.9150023585       11.4195644702
  H        46.0402924963       15.3909652838        4.0298353647
  H        43.9110367693       15.3353602143        2.7313393922
  H        42.5285907247       18.8061830606        4.8626717774
  H        44.6635672485       18.8472515055        6.1630351866
  H        44.0079261207       17.3129205010        1.2692407993
  H        46.1987816610       26.6824205740        4.6233702563
  H        52.7410612445       21.0626407890        8.1946944818
  H        14.8820236211       19.6713735610        3.8951963414
  H        17.0827129984       19.7401301126        2.7147419854
  H        18.3314037418       16.2200425217        4.8469743893
  H        16.1327347751       16.1753571266        6.0367846274
  H        16.9412343550       17.6990722668        1.2939686708
  H        52.3222358205       21.6731927456        6.2943490858
  H        52.0132382151       21.7021108516        9.4957369780
  H        49.0673623822       18.6081418543        5.2042450979
  H        13.2472284556       19.0164870004        7.9771712454
  H        29.9687599234       12.4267644647       12.1908992401
  H        28.9055716931       10.4950879214       13.3718157315
  H        25.2392351067       11.2212617756       11.2459150852
  H        26.3184242018       13.1455086410       10.0655684783
  H        27.1971927470       11.6564830712       14.7915959814
  H        30.9459477296       22.7487491717       12.0895872450
  H        31.9378627708       24.6507591015       13.3606723041
  H        35.5955367530       24.2158698792       11.1388821919
  H        34.5782361507       22.3293405641        9.8524977661
  H        33.6150589430       23.6052886894       14.7672800292
  H        25.7094406846        8.5921424616       11.4064154644
  H        30.8914577316       22.6805951746        3.9300718610
  H        31.8923211199       24.5609342738        2.6341442313
  H        35.5309841316       24.1695750122        4.8955901215
  H        34.5100117422       22.2991718785        6.1976273294
  H        33.5897504199       23.5842268734        1.2119729714
  H        40.6017613593       17.1103720186        4.6532399683
  H        32.5086250375       14.1452601060        8.2469365165
  H        29.9024864484       12.5555727145        3.9050853971
  H        28.8891744289       10.6420190352        2.6550158919
  H        25.2384790167       11.1403673131        4.8736265110
  H        26.2767665084       13.0318235316        6.1366640985
  H        27.1978380308       11.6707284430        1.2413021760
  H        33.3077063117       14.2217326045        6.4648775471
  H        33.4087586979       14.4048671604        9.5953365280
  H        32.0964124273       18.5002559157        5.1559382746
  H        30.2251768478       14.1878087019        8.0736588747
  H        16.1184967393        2.9632257314       12.1297211353
  H        14.9533100158        4.8202633670       13.3225177256
  H        17.3661045691        7.6858800241       11.2100146158
  H        18.5148182545        5.8182584289       10.0101358934
  H        16.7537190923        5.7396478788       14.7715149886
  H        44.8283700701       32.1401244362       11.9765477193
  H        45.9376175273       30.3412320897       13.3060368491
  H        43.6814022732       27.3781246011       11.1531310944
  H        42.5987247905       29.1899339848        9.8105298841
  H        44.2302997326       29.4366526218       14.7689221811
  H        14.8508338538        8.5458955503       11.3633249058
  H        44.9003261293       32.2338973733        3.9324788925
  H        46.0252314688       30.4128433800        2.6529398896
  H        43.7622241183       27.4840050260        4.8444071284
  H        42.6444485529       29.3176314716        6.1234398113
  H        44.2684750649       29.4704185846        1.2182267635
  H        35.0050776488       26.6374095236        4.6501647207
  H        36.6050476467       35.1339850425        8.1806823926
  H        16.1438009479        3.0129057995        3.9041372740
  H        14.9742016973        4.8562151446        2.6883302798
  H        17.3958310902        7.7472457245        4.7554245356
  H        18.5429289830        5.8932834079        5.9831300357
  H        16.7648206221        5.7555936654        1.2193145199
  H        36.2788152917       34.4821095451        6.2735206457
  H        36.3808287234       34.2091444159        9.4998150572
  H        40.5784005044       33.2011498028        5.1545653488
  H        17.4709779038        1.9466579663        7.9740920774
  H        28.8932680390       19.1184819919       12.4028446539
  H        28.8879241704       18.9853012723        3.7666458348
  H        32.1920552397       16.0857099268        3.6534987972
  H        31.6748920332       15.8086896058       12.5922465409
  H        28.2313362783       17.4278653911       14.6644597191
  H        29.7733359513       15.0367520712       14.2630481510
  H        28.3090169086       17.6336809070        1.4454022922
  H        30.9769787280       19.4989937122       13.7834308599
  H        18.8536268316        0.8691228564       12.3352278576
  H        40.5280622548       35.2290205788        3.9522136864
  H        42.3227272741       34.4175715021        3.5912959346
  H        22.0877236526        0.6922477163       12.3511024467
  H        11.5965082471       18.7132513231       12.3826410629
  H        52.2647554711       18.4309863026        3.6773362682
  H        49.2546808419       16.4772184020        3.5848139961
  H        10.1503587043       15.7982043676       12.2926544471
  H        50.8498211894       17.6924813806        3.9543136228
  H        10.0459228179       17.3945905596       12.0520182877
  H        20.2147578979        0.0021625400       12.0419994514
  H        39.1836431678       36.1242527348        3.6862292791
 Ni        30.3063440701       17.3075114298        2.8325589459
 Ni        30.0991506725       16.3023840811        0.4933538062
 Ni        30.0557709891       18.6244480909       -0.2493564165
 Ni        29.9278811013       17.2376416863       13.0844991697
  O        10.6498718683       14.3651438983        5.4858199288
  O        12.6131172698       14.6575380917        6.5838815778
  O        49.1479140710       16.8460049454        7.9898326144
  O        50.3502664876       20.9357855884        5.6481677083
  O        48.3485818745       20.5932709118        6.6659852178
  O        11.0514472843       17.0539850057        6.5005878889
  O        50.3209059678       20.8816367612       10.4068089386
  O        48.3467524067       20.5867059193        9.3271109782
  O        49.5435254192       18.2484813185       10.0683098055
  O        12.3588388034       18.6246132483        7.9997092290
  O        48.6931882312       14.1486077246        6.7512932642
  O         8.2098468181       14.2104068257        9.3225537218
  O        10.7353740813       14.5067972822       10.6643552206
  O        12.5717938629       14.5828648841        9.3285039552
  O        22.8446187790        2.0423192676        5.4873197077
  O        21.6064816375        3.5927993094        6.5887694689
  O        42.0577706232       34.1369129182        7.9790075700
  O        37.9815249067       33.1378183011        5.5728673563
  O        39.2171653426       31.5753162348        6.6658119381
  O        20.3083271974        1.0394472867        6.5020705891
  O        38.0246060962       33.1860063852       10.4152020345
  O        39.2170353425       31.5821204801        9.3288515837
  O        40.6521526964       33.7690224102       10.0601616112
  O        18.2558570741        1.3757561537        7.9968041948
  O        44.6222364562       35.1004551463        6.7587490699
  O        24.2053651232       -0.0000209894        9.3208048888
  O        22.7531142918        2.0572491610       10.5836978065
  O        21.6248862670        3.5965271398        9.3434848004
  O        27.4961036662       18.7543726909        5.4926110062
  O        26.7606299139       16.9392625460        6.6519394074
  O        30.6666289477       19.4013578218        8.0636231834
  O        33.5851725785       16.2761746985        5.6622328972
  O        34.2748532076       18.1658810069        6.7355392291
  O        29.5754308456       17.0544757159        6.5810896380
  O        33.5547466519       16.3397290994       10.4178313552
  O        34.2990874461       18.2419038829        9.4093347919
  O        31.6525272192       18.3152554741       10.1421035931
  O        30.3217448247       15.1542341025        8.0833823453
  O        28.5531956472       21.0320711054        6.8952002806
  O        28.5135556530       20.9561998164        9.4121393489
  O        27.4549088786       18.6795846500       10.6561453264
  O        26.6939574203       16.9286289244        9.4119492464
  O        13.1487748550       18.6929141342       10.5875618569
  O        13.9191049045       16.9160806535        9.4047549942
  O        50.5958585353       19.3502392758        8.0205837202
  O        47.6828000161       16.3270542078       10.4172754741
  O        46.9506052282       18.1756275598        9.3253864803
  O        11.0694564511       17.0157121612        9.4897097638
  O        47.6756858669       16.3358581188        5.6528476571
  O        46.9270465801       18.2359163084        6.6644371121
  O        49.5684939197       18.3177526293        5.9823503263
  O        10.3185583727       15.1002374341        7.9971155416
  O        52.6707120066       21.0278695957        9.2418422347
  O        12.1468191848       20.8911534206        6.6732112485
  O        13.1084827317       18.6135726940        5.3254980510
  O        13.9570390722       16.9868494501        6.6656002175
  O        29.9934171683       14.4401543564       10.7271037622
  O        28.0882657724       14.6536037067        9.4944289805
  O        32.1352989197       16.8574771565        8.0731001492
  O        30.9395401386       20.8893141744       10.4875174083
  O        32.9005841918       20.6562761467        9.3364489966
  O        29.5653166513       17.0710606718        9.5719294951
  O        30.8519502984       20.8862335752        5.6598529733
  O        32.8714079238       20.5857691532        6.6651187637
  O        31.6802762168       18.2532519439        5.9981945864
  O        28.2904878288       18.6745483681        8.0719702136
  O        32.4916395670       14.2124035727        9.3272450516
  O        32.4052019657       14.2155571587        6.8253068814
  O        29.9191689104       14.4415962786        5.4917503060
  O        28.0376630934       14.5899497476        6.7524620441
  O        17.8892215583        1.9666049671       10.6628377267
  O        18.9562962809        3.5271196632        9.4079487995
  O        39.1685800539       34.1385090992        7.9972225139
  O        43.2801852943       33.0588603598       10.3316643160
  O        42.0343175150       31.5064526128        9.2416297974
  O        20.3175519106        1.0365827019        9.4801717079
  O        43.2760855726       33.1824961506        5.5749116018
  O        42.0052010150       31.5840952667        6.5830790937
  O        40.5789665708       33.7747267358        5.9360538646
  O        22.3672105493        1.3845749563        7.9979525807
  O        36.6727512248       35.0997606007        9.2333081536
  O        16.4455498343        0.0642935203        6.6682860188
  O        17.9364681281        2.0434289885        5.3263787075
  O        18.9191858441        3.5931428412        6.6659658486
  O        29.7785631453       18.7557183096        4.0880536430
  O        29.7363469480       18.8143862078       12.0088701232
  O        31.3519445578       16.3398757986        4.0710135879
  O        31.2664350568       16.4745656918       12.0109923837
  O        29.2745845791       17.7315204136        1.3240313580
  O        30.1569217552       15.8825351281       14.5562651930
  O        31.3106739231       19.2123398933       14.6583813685
  O        28.7719036571       18.1590940327       14.3079734250
  O        39.4568389126       35.2437355024        4.0019797796
  O        19.1414716522        0.0046347810       11.9905475030
  O        41.9695636883       35.1725476846        4.0871502870
  O        21.6913030489       -0.0693500952       11.8957866469
  O        51.3650048723       18.6142903986        4.0054755505
  O        10.7508082517       18.7472646891       11.9049347233
  O        50.0793009499       16.4128223071        4.0917759797
  O         9.5244637924       16.4830553574       11.9912073594
 Zr         9.2963757332       16.0528349670        6.1823923166
 Zr        49.8359129302       16.0068571760        9.7465906601
 Zr        22.0728903450        0.0291438610        6.1891331698
 Zr        42.4605475102       35.1528733565        9.8007336231
 Zr        29.6089058214       19.0826063468        6.2734639930
 Zr        29.5784095717       19.1696856268        9.8480855430
 Zr        11.0374041698       19.0522532921        9.8277055601
 Zr        11.0433298189       19.1550080884        6.2513168818
 Zr        31.3426456903       16.1029188398        9.8542914130
 Zr        31.3858757586       16.0150256513        6.2751726298
 Zr        18.6007806631       -0.0022732409        9.7635392786
 Zr        18.5063278699       -0.0083773507        6.2135517733
 Zr        12.3012392248       16.3234995289        7.9903021921
 Zr        48.6156546115       18.8331296190        8.0105691360
 Zr        20.3153249127        2.4729439639        7.9905439651
 Zr        40.6422206563       32.6859640319        7.9784779835
 Zr        28.3407700126       16.3328266601        8.0814793291
 Zr        32.6286192790       18.8496373591        8.0583725186
