     568
 i =      233, E =     -4744.3975467033
  C        11.8586755193       14.0535069865        5.7415452445
  C        12.4561934048       12.8905265057        5.0232869511
  C        11.7046347015       12.1718297251        4.0813479331
  C        12.2810055008       11.1096171347        3.3889976684
  C        13.6214744460       10.7395919725        3.6169969493
  C        14.3545017656       11.4429088766        4.5907622587
  C        13.7815992489       12.5078808951        5.2822627423
  C        14.2610451277        9.6489630016        2.8435920525
  C        14.2564902094        9.6569386152        1.4218893123
  C        13.7432828536       10.7590333748        0.6679639126
  C        49.1267752892       21.2332936526        5.8796826274
  C        48.5500830306       22.4011937055        5.1525851232
  C        49.3001302214       23.0685248579        4.1716010483
  C        48.7332057485       24.1076841300        3.4384349408
  C        47.4026538020       24.5093198951        3.6670478717
  C        46.6716842881       23.8604297842        4.6805410264
  C        47.2341266215       22.8155083703        5.4098662028
  C        46.7724255867       25.5870222759        2.8697767699
  C        46.7615208550       25.5574697804        1.4480143091
  C        47.2614162154       24.4423642881        0.7045124771
  C        14.8604673438        8.5706142628        0.7086311641
  C        14.8918075073        8.5969975728        3.5202396863
  C        49.1131632141       21.2035133207       10.1454263994
  C        48.5278029881       22.3647881316       10.8726252660
  C        49.2670901799       23.0256744205       11.8653887069
  C        48.6907359405       24.0602316629       12.5968127875
  C        47.3602586305       24.4568747746       12.3586768950
  C        46.6397776086       23.8117921174       11.3353117928
  C        47.2133516880       22.7758771116       10.6035648568
  C        46.7218413287       25.5318720830       13.1496830934
  C        46.7336808310       25.5282774911       14.5713837431
  C        47.2491058826       24.4290493819       15.3277521021
  C        40.6347069758       17.1169288090       15.3208746938
  C        40.6538824866       17.1538265373       12.5121775729
  C        11.8829452461       14.0864754688       10.2854632616
  C        12.4722490023       12.9106038651       10.9896408312
  C        11.7148292604       12.1776038536       11.9159900869
  C        12.2814013604       11.0951346739       12.5844085103
  C        13.6201256270       10.7211897964       12.3523576340
  C        14.3579382071       11.4364522964       11.3911970593
  C        13.7925182106       12.5176258585       10.7185100553
  C        14.2538033731        9.6245020932       13.1227914769
  C        14.2526106876        9.6445341576       14.5446331581
  C        13.7427722432       10.7535004288       15.2917080149
  C        22.5145192642        3.2442668632        5.7538460376
  C        23.2361591781        4.3469351960        5.0561888219
  C        24.2373005189        4.0608036132        4.1160011858
  C        24.8728506204        5.0957345388        3.4347320318
  C        24.5233837000        6.4397932140        3.6730284021
  C        23.5503225907        6.7175841169        4.6505026594
  C        22.9102631431        5.6842728793        5.3305139589
  C        25.1365350185        7.5419172478        2.8959701047
  C        25.1098001586        7.5326988909        1.4742812687
  C        24.4049001103        6.5342392264        0.7296877624
  C        38.2977661263       31.9287076503        5.8523666367
  C        37.5551479420       30.8413801764        5.1513497835
  C        36.5898916561       31.1506832376        4.1805438168
  C        35.9579669472       30.1343653795        3.4694116344
  C        36.2760375669       28.7825270455        3.7056813287
  C        37.2106034861       28.4806678146        4.7143102448
  C        37.8465036708       29.4960003527        5.4250249609
  C        35.6638336870       27.6960690832        2.9065635261
  C        35.7024790172       27.7115945891        1.4849050994
  C        36.4165248775       28.7114643995        0.7518293873
  C        25.7344940627        8.6008061159        0.7528639937
  C        25.7367168070        8.6162008589        3.5648247199
  C        38.3302048562       31.9608110740       10.1603985725
  C        37.6128355792       30.8886460579       10.9100614426
  C        36.6795316813       31.1997372153       11.9111691346
  C        36.0683394468       30.1839957750       12.6443207434
  C        36.3752077717       28.8299003201       12.4013016312
  C        37.2895146454       28.5287047620       11.3728863168
  C        37.9024356630       29.5410114566       10.6406071524
  C        35.7585121876       27.7328881160       13.1838283762
  C        35.7508835295       27.7303974483       14.6064940027
  C        36.4380350045       28.7216106934       15.3752414559
  C        46.1356711018       26.6209089014       15.2815192362
  C        46.0877405650       26.5801391049       12.4736241795
  C        22.4618401719        3.2553637184       10.2577312660
  C        23.1589506634        4.3620061185       10.9810837230
  C        24.1638063864        4.0716999439       11.9177372874
  C        24.7959542340        5.0986301517       12.6145692866
  C        24.4433988063        6.4457290033       12.3976330558
  C        23.4611780501        6.7293408581       11.4297118606
  C        22.8246112965        5.7026005223       10.7330361363
  C        25.0797967234        7.5407122796       13.1716244831
  C        25.0811496976        7.5312989966       14.5945825715
  C        24.3895000695        6.5344503962       15.3528265703
  C        26.6208547901       17.8602011008        5.7811027998
  C        25.3159888019       17.9012324207        5.0515003924
  C        25.0459911067       18.9058091477        4.1082786050
  C        23.8334359379       18.9211800261        3.4210087060
  C        22.8515912525       17.9376446472        3.6584331019
  C        23.1174077956       16.9553901001        4.6310117926
  C        24.3330867581       16.9328599638        5.3133916580
  C        21.5768468229       17.9233094716        2.8963643939
  C        21.5767561949       17.9032661030        1.4741324107
  C        22.7821461877       17.7804462408        0.7133773061
  C        34.4489472144       17.1984045168        5.9243566254
  C        35.7419923742       17.1469828378        5.1830456784
  C        35.9661535455       16.1536574061        4.2166601371
  C        37.1429517101       16.1467693327        3.4737609366
  C        38.1300381282       17.1286698501        3.6825343591
  C        37.9123274200       18.1005809780        4.6772775509
  C        36.7306796958       18.1153498290        5.4144028470
  C        39.3829773680       17.1363753055        2.8945029363
  C        39.3770418969       17.1380175914        1.4731288560
  C        38.1686106753       17.2476466469        0.7156569628
  C        20.3301842951       17.9219249193        0.7659644349
  C        20.3527033168       17.9262816281        3.5796812201
  C        34.4776334366       17.2439511899       10.1809190016
  C        35.7805593807       17.1656032205       10.9011819202
  C        35.9981021794       16.1721378599       11.8672850976
  C        37.1827507055       16.1509308553       12.5971048366
  C        38.1779760476       17.1224856813       12.3787901197
  C        37.9681265615       18.0910092008       11.3797910183
  C        36.7808628284       18.1173761622       10.6532989229
  C        39.4231583122       17.1373953445       13.1764574423
  C        39.3977003810       17.1400534021       14.5975029759
  C        38.1784948337       17.2478422747       15.3385723088
  C        35.1096787711       26.6546399075       15.3070138256
  C        35.1748005749       26.6601700244       12.4973617977
  C        26.5687562481       17.8255577468       10.3229176432
  C        25.2536818407       17.8695019387       11.0285834699
  C        24.9922140456       18.8703291270       11.9764077514
  C        23.7743853445       18.8950460761       12.6500717054
  C        22.7897854140       17.9182728968       12.4003704482
  C        23.0459072884       16.9421448153       11.4204396232
  C        24.2642283721       16.9157976611       10.7444134026
  C        21.5268039870       17.8986578065       13.1740364391
  C        21.5510664484       17.8880348743       14.5955195585
  C        22.7698309267       17.7721448419       15.3369993391
  C        14.0459254736       17.8285023580       10.2888840895
  C        15.3500809131       17.8844649118       11.0146755487
  C        15.6072556253       18.8872460018       11.9624683103
  C        16.8161548378       18.9067483854       12.6555151253
  C        17.8016380057       17.9263261109       12.4224355489
  C        17.5491791650       16.9476423366       11.4426774020
  C        16.3397373678       16.9235188478       10.7513715620
  C        19.0707645571       17.9078315032       13.1909447927
  C        19.0697970201       17.9034587568       14.6132986274
  C        17.8629410701       17.8049760606       15.3748424196
  C        46.8063728829       17.2187426206       10.1589631857
  C        45.5182577907       17.1575830791       10.9059083313
  C        45.3138650681       16.1793793830       11.8911963055
  C        44.1335805509       16.1619776582       12.6290429878
  C        43.1291313670       17.1231197339       12.4031879003
  C        43.3309137349       18.0810797130       11.3913827191
  C        44.5117214686       18.1022507800       10.6543057782
  C        41.8770395679       17.1342301955       13.1917845742
  C        41.8819891515       17.1300959991       14.6132859671
  C        43.0908489494       17.2232990816       15.3721866344
  C        20.3167572015       17.9132711208       15.3210054082
  C        20.2944755348       17.8885909183       12.5080872888
  C        46.7864152423       17.2312379424        5.8901665976
  C        45.4834896240       17.1271669879        5.1761020903
  C        45.2623795171       16.1279196012        4.2164869972
  C        44.0746963293       16.1048425499        3.4901180966
  C        43.0801465708       17.0781760068        3.7067440799
  C        43.2911285620       18.0466268428        4.7056437390
  C        44.4797887416       18.0760017369        5.4271795543
  C        41.8353884483       17.1038136277        2.9094466735
  C        41.8608365281       17.1133060167        1.4888815073
  C        43.0809858007       17.2128108768        0.7487575338
  C        46.1534880305       26.6373434631        0.7262737123
  C        46.1624216454       26.6561096679        3.5359159559
  C        14.0452851015       17.8308862947        5.7083671383
  C        15.3664180828       17.9030086298        5.0171130932
  C        15.6417491307       18.9178453636        4.0885324891
  C        16.8710107648       18.9530469596        3.4339247099
  C        17.8526439757       17.9725088135        3.6821086474
  C        17.5840872545       16.9863761945        4.6486970361
  C        16.3568883872       16.9507550314        5.3068402014
  C        19.1199115567       17.9456077031        2.9130176425
  C        19.0954395394       17.9218474540        1.4914562748
  C        17.8753334654       17.8132703392        0.7510540933
  C        28.8120066498       14.0910461077       10.3908585237
  C        28.2007714136       12.9143598233       11.0765394958
  C        28.9354232640       12.1567780577       12.0008443659
  C        28.3401257237       11.0801975980       12.6537280245
  C        26.9962699797       10.7356800365       12.4042225154
  C        26.2827475987       11.4728796748       11.4424563753
  C        26.8757682830       12.5505426079       10.7890539651
  C        26.3332942750        9.6522899080       13.1662939654
  C        26.3319325237        9.6741557297       14.5872631223
  C        26.8425950960       10.7846004987       15.3315060421
  C        32.1811334888       21.2417327973       10.1451002042
  C        32.7761114047       22.4075562413       10.8659839204
  C        32.0211810851       23.0922723490       11.8311328938
  C        32.5882893728       24.1319993550       12.5619645204
  C        33.9265301485       24.5163277210       12.3491730122
  C        34.6645100803       23.8497982064       11.3527787812
  C        34.0996530162       22.8043275910       10.6238847629
  C        34.5498368516       25.5933793310       13.1529754004
  C        34.5242020580       25.5699427347       14.5749542406
  C        34.0047991082       24.4582741577       15.3109773812
  C        25.7241543479        8.5963851695       15.3078334465
  C        25.6910436246        8.6045333470       12.4941224744
  C        32.0768802539       21.2042808657        5.8807378225
  C        32.6416768582       22.3728293521        5.1425349825
  C        31.9046220209       23.0219643787        4.1400632426
  C        32.4748997458       24.0621509992        3.4079658352
  C        33.7960968758       24.4836038576        3.6583883055
  C        34.5133152136       23.8493621272        4.6913972465
  C        33.9484691572       22.8056846647        5.4189195391
  C        34.4360998995       25.5677854828        2.8759304368
  C        34.4639638607       25.5577668858        1.4534376534
  C        33.9741866373       24.4531668669        0.6876705586
  C        40.6238323029       17.1123995099        0.7650532543
  C        40.6051847455       17.1368267376        3.5748490326
  C        28.7480181192       14.0718135209        5.8199815023
  C        28.1451176581       12.9214176884        5.0813188286
  C        28.8844838073       12.2383495134        4.1034152806
  C        28.3132783783       11.1760081621        3.4063355249
  C        26.9864583673       10.7721463087        3.6591283580
  C        26.2647281234       11.4447965998        4.6633026974
  C        26.8347121973       12.5058818022        5.3641936830
  C        26.3506284530        9.6776572747        2.8865403193
  C        26.3411859748        9.6880300679        1.4643771749
  C        26.8436581910       10.7929747851        0.7074846112
  C        18.1355198125        3.1808826883       10.3170986109
  C        17.4061918795        4.2781749550       11.0157290060
  C        16.3905724212        3.9997933639       11.9433364126
  C        15.7428387148        5.0397691747       12.6068491307
  C        16.0946445215        6.3834934167       12.3670672542
  C        17.0839581837        6.6530246288       11.4032372030
  C        17.7330629667        5.6156889032       10.7381768959
  C        15.4703423836        7.4912045219       13.1301259426
  C        15.4857249620        7.4906020242       14.5518413567
  C        16.1873128228        6.4970200223       15.3050273523
  C        42.9457809164       31.8594862847       10.0728394969
  C        43.6461437999       30.7718112941       10.8167744437
  C        44.5917608012       31.0931443029       11.8027644777
  C        45.1974952020       30.0876185837       12.5504262856
  C        44.8709365860       28.7345616022       12.3357201581
  C        43.9450163095       28.4201882912       11.3226036901
  C        43.3361801125       29.4253219678       10.5745601399
  C        45.4886074448       27.6553013984       13.1389012116
  C        45.4929375634       27.6810162641       14.5605949422
  C        44.8058679969       28.6890622029       15.3072336675
  C        14.8567316214        8.5630903444       15.2641931699
  C        14.8749543098        8.5629083990       12.4515309376
  C        42.9463978475       31.9615628868        5.8089863456
  C        43.6916101956       30.8854431744        5.0954998276
  C        44.6564373596       31.1913658478        4.1234280944
  C        45.2779796254       30.1718027445        3.4056918876
  C        44.9540232553       28.8214888108        3.6431153580
  C        44.0203116204       28.5237904949        4.6536690275
  C        43.3920239580       29.5405399658        5.3658581090
  C        45.5631540322       27.7241270299        2.8578742939
  C        45.5335307224       27.7174982671        1.4365735705
  C        44.8271691022       28.7077054655        0.6836276176
  C        35.0818671682       26.6468367735        0.7525366296
  C        35.0480989229       26.6242304717        3.5628584873
  C        18.1487128620        3.2469440951        5.7066746258
  C        17.4300601345        4.3438325836        4.9974279113
  C        16.4148829306        4.0525488451        4.0738309056
  C        15.7666007976        5.0831726071        3.3983891546
  C        16.1212158209        6.4284100578        3.6211468756
  C        17.1125002023        6.7117951132        4.5784981592
  C        17.7601611282        5.6828956701        5.2583077606
  C        15.4907542394        7.5241186939        2.8486735042
  C        15.4967289944        7.5075403099        1.4275335540
  C        16.1935489611        6.5058711099        0.6808429138
  H        10.6725738619       12.4661078700        3.9041615026
  H        11.6947683967       10.5512723872        2.6623090354
  H        15.3914216778       11.1680617563        4.7727552905
  H        14.3509286547       13.0708883079        6.0179661482
  H        13.3761986618       11.6311348668        1.2012614847
  H        50.3228360332       22.7484844015        3.9868639660
  H        49.3196792685       24.6229500239        2.6808496902
  H        45.6421693658       24.1611526947        4.8636671244
  H        46.6630638239       22.2902778700        6.1719267092
  H        47.6298428317       23.5759303351        1.2461823837
  H        14.8720326523        8.5881642541        4.6085443329
  H        50.2871840142       22.7029376993       12.0602189055
  H        49.2691409166       24.5758232978       13.3602141548
  H        45.6103075059       24.1088834428       11.1463646830
  H        46.6524290492       22.2535908751        9.8321619210
  H        47.6077831388       23.5518859581       14.7968580972
  H        40.6599427548       17.1266250498       11.4242457415
  H        48.6871220996       14.0948405656        7.8000682219
  H        10.6814266856       12.4668228655       12.0935696265
  H        11.6896596460       10.5248788382       13.2972601435
  H        15.3932621707       11.1583370011       11.2050059725
  H        14.3647347759       13.0867916423        9.9897268311
  H        13.3758537228       11.6220701989       14.7530625421
  H        47.9301586080       14.2182082326        9.7106620370
  H        47.7800435192       14.3735846974        6.4952975783
  H        49.0836688146       18.5525052483       10.8673470139
  H        10.4160146575       14.1342815434        7.9986179031
  H        24.4949744821        3.0206782058        3.9292033858
  H        25.6489990768        4.8726488961        2.7058373767
  H        23.2726446008        7.7521754989        4.8411619026
  H        22.1371040738        5.8902290710        6.0667684980
  H        23.8442454183        5.7780161956        1.2713514838
  H        36.3599215823       32.1953446266        3.9848969185
  H        35.2104007409       30.3788923753        2.7179555271
  H        37.4640623996       27.4398704400        4.9050987519
  H        38.5935554377       29.2694512447        6.1821430884
  H        36.9789182636       29.4606434557        1.3013650508
  H        25.7705001156        8.6009502158        4.6527159002
  H        36.4521778265       32.2443628854       12.1114496915
  H        35.3380003837       30.4327458085       13.4111291854
  H        37.5406306563       27.4881289834       11.1781016836
  H        38.6287390926       29.3113873995        9.8646970492
  H        37.0178176743       29.4782240523       14.8543305665
  H        46.1089952448       26.5874535803       11.3855849188
  H        44.6681928092       35.1160590864        7.8139795275
  H        24.4403174322        3.0325200954       12.0809042239
  H        25.5791635478        4.8662266229       13.3330018107
  H        23.1772210554        7.7648163763       11.2531706970
  H        22.0508281016        5.9189954939       10.0000392863
  H        23.8162877882        5.7790876243       14.8231253059
  H        44.9534754380       34.3900500961        9.6949218028
  H        44.9014586186       34.2066423085        6.4906833476
  H        40.6659230301       33.2089723641       10.8531374083
  H        23.1507963572        1.9573874505        8.0054688475
  H        25.7940820389       19.6761446626        3.9344191319
  H        23.6292166928       19.7065921860        2.6962976910
  H        22.3714171538       16.1868228942        4.8231040598
  H        24.5487243698       16.1610875449        6.0487021285
  H        23.7225378009       17.6614162347        1.2434810512
  H        35.2051359978       15.3934730267        4.0573789900
  H        37.3146049378       15.3720787939        2.7296129527
  H        38.6684388123       18.8654078411        4.8422120876
  H        36.5437967543       18.8804225632        6.1644476822
  H        37.2276040142       17.3640764394        1.2459258050
  H        20.3599353857       17.9653971239        4.6675848656
  H        35.2195932342       15.4341312591       12.0440619682
  H        37.3503324429       15.3789772519       13.3449338405
  H        38.7315860342       18.8469665907       11.2081669588
  H        36.5953130632       18.8826281877        9.9033407216
  H        37.2450576867       17.3648005258       14.7952430665
  H        35.1602454098       26.6823288671       11.4093137413
  H        28.5099503980       21.0830659698        7.9688320039
  H        25.7563493074       19.6200582314       12.1685577469
  H        23.5708910834       19.6757632432       13.3798053662
  H        22.2938253427       16.1812345562       11.2220674038
  H        24.4784775384       16.1506750532       10.0020141576
  H        23.7008617476       17.6474540006       14.7920954607
  H        28.9893120636       21.7257764640        9.7702551267
  H        29.1566944498       21.7410166559        6.6150538224
  H        32.1175595463       18.5406463343       10.9809901312
  H        27.4053904074       19.0716330539        8.0746266149
  H        14.8493473876       19.6468272028       12.1406594570
  H        17.0122129601       19.6905547488       13.3840340256
  H        18.2998429963       16.1828654174       11.2540752723
  H        16.1328362062       16.1548191638       10.0105963988
  H        16.9202748230       17.6902292385       14.8476467460
  H        46.0968317015       15.4465825973       12.0714519386
  H        43.9743470707       15.3958281923       13.3846267068
  H        42.5627351051       18.8308183975       11.2137044588
  H        44.6848619496       18.8557783009        9.8895998077
  H        44.0327223991       17.3365062977       14.8430260506
  H        20.2878629447       17.9199126285       11.4200112791
  H        46.0368798020       15.3847253186        4.0412817461
  H        43.9045832664       15.3301574290        2.7456239359
  H        42.5273001660       18.8018118579        4.8788030756
  H        44.6656320063       18.8424850140        6.1754500723
  H        44.0152549299       17.3166413678        1.2928379341
  H        46.1991391382       26.6825836826        4.6233671212
  H        52.7410850169       21.0625965083        8.1946979288
  H        14.8825726673       19.6728575330        3.8963997847
  H        17.0835097594       19.7430875110        2.7168462809
  H        18.3330450352       16.2226437274        4.8479254192
  H        16.1342364107       16.1765972819        6.0371106885
  H        16.9420290797       17.7048198201        1.2953435388
  H        52.3221987101       21.6731767274        6.2943405582
  H        52.0130757817       21.7019580152        9.4956606502
  H        49.0673919894       18.6078711174        5.2042442678
  H        13.2474324165       19.0163781154        7.9771723811
  H        29.9729358701       12.4242569043       12.1890477596
  H        28.9111275182       10.4916262539       13.3686702508
  H        25.2443603869       11.2163323394       11.2427382249
  H        26.3228077777       13.1407824339       10.0623848369
  H        27.2055586903       11.6524772185       14.7892192065
  H        30.9921527276       22.7846418120       12.0016966255
  H        31.9970087910       24.6619032348       13.3055779267
  H        35.7005145750       24.1358416299       11.1828283031
  H        34.6757916521       22.2648276645        9.8755866835
  H        33.6559358835       23.5872443087       14.7636119894
  H        25.7122273831        8.5891551552       11.4058513284
  H        30.8891988819       22.6888403828        3.9375014094
  H        31.8957072006       24.5644847943        2.6362003768
  H        35.5357351863       24.1622431159        4.8928623361
  H        34.5104325361       22.2948476563        6.1971651503
  H        33.6016538613       23.5779718147        1.2124637670
  H        40.5977089259       17.1070532603        4.6627413839
  H        32.5119510484       14.1452581628        8.2596388086
  H        29.9072763413       12.5548591423        3.9100746499
  H        28.8955114657       10.6402546544        2.6596929628
  H        25.2381102402       11.1463714423        4.8656906597
  H        26.2743622193       13.0390578674        6.1286183111
  H        27.2061830578       11.6677682285        1.2392849193
  H        33.3005283633       14.1955173697        6.4483675849
  H        33.4101081516       14.4174121634        9.5991459156
  H        32.1208451376       18.5533510035        5.1844173389
  H        30.2211814514       14.1870748247        8.0841625147
  H        16.1185761759        2.9632747169       12.1297668804
  H        14.9534156553        4.8203534231       13.3225293083
  H        17.3662787180        7.6859110348       11.2100287015
  H        18.5149948778        5.8183168461       10.0102068700
  H        16.7538688715        5.7396792256       14.7715268135
  H        44.8281329781       32.1402173216       11.9768656134
  H        45.9374341287       30.3413617181       13.3063015050
  H        43.6821725526       27.3781348428       11.1526115833
  H        42.5994995449       29.1899471773        9.8099654534
  H        44.2304459103       29.4367888812       14.7689458934
  H        14.8510784814        8.5460387048       11.3633148772
  H        44.9000815746       32.2340428768        3.9320970815
  H        46.0250207565       30.4130278151        2.6525887563
  H        43.7631295113       27.4840756864        4.8450273150
  H        42.6452855593       29.3176953338        6.1240574399
  H        44.2686445346       29.4705767847        1.2182171089
  H        35.0008093845       26.6364866508        4.6501639845
  H        36.6051937568       35.1340341612        8.1806530960
  H        16.1438444232        3.0129607149        3.9040905806
  H        14.9743180837        4.8562988167        2.6882645354
  H        17.3959384243        7.7472714520        4.7554379325
  H        18.5429829465        5.8933359907        5.9831342012
  H        16.7649595154        5.7556227394        1.2192969603
  H        36.2788668451       34.4822006364        6.2733890732
  H        36.3810522499       34.2089633751        9.4995813990
  H        40.5787562517       33.2015470803        5.1541762512
  H        17.4710639955        1.9470288257        7.9741223886
  H        28.8894195273       19.1607680439       12.4356805949
  H        28.9098895004       19.0045802269        3.7293727138
  H        32.4270218187       16.3349417673        3.8278755874
  H        31.7125776949       15.6830538049       12.6063820271
  H        28.0142790306       17.6489141537       14.6255668709
  H        30.0021612622       15.0063880602       14.4518799861
  H        28.2448890841       17.6078490155        1.6536945936
  H        31.2109337859       19.5870566677       13.9711445145
  H        18.8533228637        0.8689405369       12.3352534492
  H        40.5280500551       35.2289862538        3.9521366454
  H        42.3233676960       34.4182466021        3.5909161048
  H        22.0876775355        0.6920066630       12.3514290068
  H        11.5967589740       18.7130306284       12.3825946575
  H        52.2647932222       18.4310486785        3.6771435792
  H        49.2551113030       16.4770837611        3.5846447555
  H        10.1496419153       15.7982300643       12.2931249646
  H        50.8498684956       17.6923963167        3.9543252110
  H        10.0457567689       17.3944390923       12.0520140932
  H        20.2146076847        0.0021790857       12.0420256511
  H        39.1836592629       36.1242311258        3.6862035042
 Ni        30.3490526935       17.2305771965        2.9993249823
 Ni        30.0156581337       16.3989846863        0.4170875636
 Ni        30.0086707258       18.6048988341       -0.1673397119
 Ni        30.2637267498       17.4811395039       13.2454619252
  O        10.6499276893       14.3650898101        5.4858199547
  O        12.6131816964       14.6575049021        6.5838697196
  O        49.1481518309       16.8459640160        7.9897314692
  O        50.3502799910       20.9358739947        5.6481191402
  O        48.3486148360       20.5933539147        6.6659444692
  O        11.0516878212       17.0539174752        6.5006051945
  O        50.3210395884       20.8816655500       10.4068190086
  O        48.3467631749       20.5868448984        9.3271658213
  O        49.5437894308       18.2484542338       10.0683184935
  O        12.3589996644       18.6245928924        7.9997341481
  O        48.6932724036       14.1485429574        6.7513205325
  O         8.2099298172       14.2102393143        9.3224832002
  O        10.7354073020       14.5067004365       10.6643576772
  O        12.5717845388       14.5828610976        9.3284770378
  O        22.8447078527        2.0425854203        5.4872776766
  O        21.6066822548        3.5929779555        6.5885811064
  O        42.0579408536       34.1371395653        7.9789244673
  O        37.9813343927       33.1375566439        5.5727293945
  O        39.2172207894       31.5753421931        6.6658167938
  O        20.3084108439        1.0395453695        6.5021211490
  O        38.0245454857       33.1852199914       10.4155790284
  O        39.2182862560       31.5829189508        9.3275475563
  O        40.6521814107       33.7691924338       10.0601792818
  O        18.2557892122        1.3759088422        7.9967950944
  O        44.6222188745       35.1005065139        6.7587554812
  O        24.2053694124       -0.0000299867        9.3207611721
  O        22.7530803868        2.0570991209       10.5836706848
  O        21.6249315709        3.5965050226        9.3436042876
  O        27.4970749844       18.7542671532        5.4936745515
  O        26.7633628264       16.9374822177        6.6527314002
  O        30.6692922180       19.3997637124        8.0656246403
  O        33.5918068033       16.2781773138        5.6647934251
  O        34.2766060312       18.1680683328        6.7364467937
  O        29.5785445818       17.0528163462        6.5802253750
  O        33.6171204614       16.3271440808       10.4113397987
  O        34.3051905065       18.2456701651        9.4070354811
  O        31.6533704283       18.3138809659       10.1577619291
  O        30.3230033995       15.1529592686        8.0896520079
  O        28.5531377499       21.0317092364        6.8997445617
  O        28.5120904659       20.9587640480        9.4108921897
  O        27.4537684959       18.6779465003       10.6576925252
  O        26.6941051122       16.9278126182        9.4114413874
  O        13.1485964279       18.6929780124       10.5874569443
  O        13.9192564430       16.9161650808        9.4049006516
  O        50.5962231878       19.3503050264        8.0204685499
  O        47.6844160438       16.3266056711       10.4169418838
  O        46.9521619648       18.1757547295        9.3245725189
  O        11.0697779974       17.0155769785        9.4897140655
  O        47.6765470049       16.3354357147        5.6533493808
  O        46.9286583033       18.2358339382        6.6653454892
  O        49.5687474522       18.3177291921        5.9822861975
  O        10.3186363677       15.1001299735        7.9970392196
  O        52.6707505353       21.0278973887        9.2418341729
  O        12.1468558663       20.8911744419        6.6731797637
  O        13.1085941568       18.6135788384        5.3254853159
  O        13.9572555582       16.9868742087        6.6654774061
  O        29.9939892750       14.4429520543       10.7321241718
  O        28.0893828522       14.6532540914        9.4955662597
  O        32.1377516015       16.8517819890        8.0810221874
  O        30.9674545794       20.9538918907       10.4088832314
  O        32.9481224838       20.6021531070        9.3388159010
  O        29.5709359142       17.0727094106        9.5788272601
  O        30.8517048653       20.8862717072        5.6593409369
  O        32.8713309381       20.5852822798        6.6643583637
  O        31.6807662831       18.2488320503        5.9940545511
  O        28.2913557338       18.6743360626        8.0750434111
  O        32.4937436487       14.2145564540        9.3330766360
  O        32.4063071698       14.2114698701        6.8280643346
  O        29.9189890274       14.4463055671        5.4891488988
  O        28.0384815601       14.5902456386        6.7535354011
  O        17.8892352704        1.9666158125       10.6627843360
  O        18.9563322246        3.5270663509        9.4079086372
  O        39.1686012552       34.1386116175        7.9971457260
  O        43.2802185338       33.0589158955       10.3316926506
  O        42.0343985945       31.5064436120        9.2415949244
  O        20.3176072126        1.0367443430        9.4800865207
  O        43.2760850672       33.1825658380        5.5749013358
  O        42.0052329363       31.5840993783        6.5830094494
  O        40.5789303169       33.7748802298        5.9358321237
  O        22.3672672031        1.3847300085        7.9979222903
  O        36.6728003373       35.0996898006        9.2333213786
  O        16.4456236342        0.0642690492        6.6683130668
  O        17.9364940090        2.0434350631        5.3263621996
  O        18.9192111672        3.5931221072        6.6659892959
  O        29.7823732929       18.7595930638        4.0856940082
  O        29.7419623959       18.9759535930       11.9928935137
  O        31.4925958825       16.2030650420        4.0696578153
  O        31.3845502412       16.4135165205       12.0546895472
  O        29.2010469184       17.7271445061        1.5070308147
  O        30.4591267163       15.8182677684       14.7345020806
  O        31.3140295360       18.7591512826       14.4791450346
  O        28.6877094306       18.3130062331       14.4023748832
  O        39.4568098867       35.2436925437        4.0019677876
  O        19.1412847270        0.0045023110       11.9905189255
  O        41.9695832695       35.1726961760        4.0871184496
  O        21.6911890782       -0.0693917712       11.8958338725
  O        51.3650943976       18.6142772496        4.0054780660
  O        10.7510368105       18.7472502651       11.9049434630
  O        50.0796638983       16.4128527442        4.0917276940
  O         9.5240061240       16.4831306059       11.9912658813
 Zr         9.2966882270       16.0527469581        6.1824609101
 Zr        49.8361918504       16.0066081278        9.7463691547
 Zr        22.0731425827        0.0295864334        6.1889552216
 Zr        42.4607314865       35.1531945844        9.8008181914
 Zr        29.6086435111       19.0845898471        6.2901685247
 Zr        29.5753623798       19.1832028135        9.8751084732
 Zr        11.0377125463       19.0520587656        9.8276899158
 Zr        11.0436605144       19.1548796494        6.2511533918
 Zr        31.3525467828       16.1077094493        9.8887313570
 Zr        31.3937509397       15.9993475778        6.2967327049
 Zr        18.6010128986       -0.0018265574        9.7633921708
 Zr        18.5065310916       -0.0079057357        6.2136081216
 Zr        12.3015864054       16.3235537716        7.9902812585
 Zr        48.6164245478       18.8332274947        8.0104379775
 Zr        20.3155788916        2.4734680884        7.9904520202
 Zr        40.6428800624       32.6865153591        7.9781211526
 Zr        28.3481336696       16.3377159286        8.0866212508
 Zr        32.6274245297       18.8387690525        8.0609559518
