     573
 i =      301, E =     -4762.7920955055
  C        11.8586913981       14.0533581476        5.7419162097
  C        12.4564817300       12.8908647005        5.0230426846
  C        11.7046469163       12.1713861006        4.0818615042
  C        12.2810591823       11.1090181504        3.3897092682
  C        13.6218086805       10.7396641812        3.6170890542
  C        14.3550659362       11.4437736561        4.5900206760
  C        13.7822180625       12.5089015608        5.2812794820
  C        14.2612191397        9.6489253193        2.8437548352
  C        14.2564639283        9.6568426721        1.4220989968
  C        13.7429911570       10.7588318258        0.6682354240
  C        49.1267534029       21.2329835485        5.8797686326
  C        48.5499282051       22.4007839121        5.1523670609
  C        49.3002098328       23.0683750390        4.1716913262
  C        48.7332837580       24.1074625582        3.4383229919
  C        47.4027710721       24.5092054282        3.6670591878
  C        46.6715678912       23.8601885489        4.6803556555
  C        47.2340944494       22.8153468570        5.4098278499
  C        46.7723519515       25.5868765457        2.8698023379
  C        46.7615181039       25.5574045754        1.4479927393
  C        47.2614637145       24.4423146981        0.7044629938
  C        14.8601189101        8.5703650826        0.7087983156
  C        14.8922761435        8.5970886641        3.5202306161
  C        49.1134226780       21.2035062687       10.1451267381
  C        48.5278311418       22.3646693136       10.8725720437
  C        49.2671988321       23.0257011514       11.8651355151
  C        48.6909789261       24.0602632814       12.5966116138
  C        47.3605176858       24.4569055012       12.3586702529
  C        46.6399297909       23.8118849647       11.3353561880
  C        47.2134148991       22.7759112830       10.6035619095
  C        46.7219603033       25.5318151981       13.1496706180
  C        46.7338630334       25.5283395491       14.5713436632
  C        47.2492263741       24.4291230710       15.3276982607
  C        40.6004811002       17.1097325451       15.2933341861
  C        40.5911471945       17.0760139345       12.4829367551
  C        11.8828271235       14.0865200650       10.2854810986
  C        12.4723112922       12.9110350700       10.9901518049
  C        11.7145503694       12.1771946529       11.9155229370
  C        12.2811686223       11.0948373647       12.5841347733
  C        13.6202866004       10.7217337996       12.3527240163
  C        14.3584682360       11.4375016529       11.3921667461
  C        13.7928221200       12.5185485947       10.7193573545
  C        14.2537952273        9.6246416085       13.1228496843
  C        14.2521460711        9.6444047501       14.5447384656
  C        13.7425384015       10.7534140372       15.2919663266
  C        22.5102739510        3.2452246840        5.7481490081
  C        23.2210497635        4.3480324735        5.0383723942
  C        24.2184009019        4.0629071016        4.0936599893
  C        24.8483723765        5.0975782704        3.4062778576
  C        24.4971376671        6.4417732892        3.6419062640
  C        23.5240025471        6.7186410588        4.6199115687
  C        22.8900953140        5.6855815645        5.3062059056
  C        25.1142576221        7.5458589087        2.8694779061
  C        25.1055730365        7.5394539575        1.4470344730
  C        24.4140090195        6.5409132762        0.6902828134
  C        38.3037512773       31.9290852797        5.8476010818
  C        37.5759097176       30.8381165400        5.1368879313
  C        36.6164318038       31.1398286451        4.1583728285
  C        36.0009722298       30.1182712937        3.4399158567
  C        36.3302836050       28.7694569312        3.6782368649
  C        37.2600229525       28.4750472481        4.6933699478
  C        37.8795876981       29.4954010688        5.4104635416
  C        35.7293137646       27.6761100377        2.8810185369
  C        35.7613550892       27.6900237963        1.4594334475
  C        36.4657221733       28.6932917135        0.7219083597
  C        25.7370653604        8.6103200850        0.7354624964
  C        25.7068120594        8.6192395461        3.5479347431
  C        38.3286543954       31.9616076735       10.1558205010
  C        37.6075382041       30.8869302964       10.8966903623
  C        36.6774339032       31.1929565139       11.9018383270
  C        36.0685167348       30.1722565965       12.6295799195
  C        36.3762409506       28.8204449741       12.3763508314
  C        37.2833988595       28.5245528002       11.3405418596
  C        37.8943483728       29.5415883910       10.6139583239
  C        35.7713787710       27.7191690215       13.1602084969
  C        35.7827751470       27.7121051921       14.5822500057
  C        36.4752524017       28.7042406340       15.3450965566
  C        46.1355976670       26.6208132204       15.2814561001
  C        46.0882588144       26.5803464414       12.4736687221
  C        22.4727671982        3.2595232170       10.2563386186
  C        23.1902216042        4.3663877036       10.9663723132
  C        24.2033256122        4.0747530876       11.8946589238
  C        24.8523911115        5.1003781421       12.5798630692
  C        24.5110364005        6.4508696520       12.3625673930
  C        23.5229050790        6.7358067819       11.4005958915
  C        22.8698103395        5.7103350485       10.7147295875
  C        25.1523027373        7.5442668566       13.1419224419
  C        25.1249931563        7.5385705466       14.5657336460
  C        24.4208788738        6.5419825737       15.3132696669
  C        26.6192383288       17.8650519252        5.7806971746
  C        25.3134261366       17.9108432098        5.0578105811
  C        25.0626482505       18.8958040274        4.0891857821
  C        23.8496920987       18.9164675722        3.4038008608
  C        22.8511268549       17.9557579996        3.6640385059
  C        23.0988824309       16.9936379625        4.6615785265
  C        24.3133958184       16.9672708328        5.3451310523
  C        21.5783753592       17.9400276460        2.8995428186
  C        21.5783855616       17.9147597905        1.4768366926
  C        22.7832547589       17.7836488198        0.7165415890
  C        34.4372530239       17.1953193780        5.9188944084
  C        35.7301257408       17.1521328045        5.1740730495
  C        35.9281280423       16.2025316702        4.1591043199
  C        37.1086212191       16.1957000773        3.4210574278
  C        38.1258300956       17.1371521735        3.6752006819
  C        37.9303095435       18.0665458856        4.7153307144
  C        36.7468986762       18.0792446480        5.4508754929
  C        39.3771833477       17.1520474815        2.8812140466
  C        39.3628606210       17.1628289903        1.4586387605
  C        38.1515586485       17.2957728671        0.7101136868
  C        20.3314183958       17.9345664238        0.7686969819
  C        20.3533018538       17.9451447871        3.5818313086
  C        34.3459445826       17.1717864251       10.2741648129
  C        35.6529542478       17.0817949172       10.9803042942
  C        35.8630797686       16.1469339644       12.0056740290
  C        37.0740912214       16.1239688211       12.6937231267
  C        38.1018160171       17.0388603851       12.3860271181
  C        37.8942713525       17.9443544736       11.3277324751
  C        36.6867341330       17.9691103483       10.6369805407
  C        39.3641796433       17.0756442439       13.1598296411
  C        39.3561723410       17.1255481088       14.5815187611
  C        38.1483558012       17.2774951774       15.3335700713
  C        35.1551443693       26.6314410242       15.2863839700
  C        35.1823673116       26.6477928842       12.4772360741
  C        26.5651932536       17.8269978314       10.3241650507
  C        25.2521843788       17.8733527946       11.0287034799
  C        24.9981041012       18.8675619542       11.9858736763
  C        23.7806654815       18.8945129543       12.6595906360
  C        22.7896923302       17.9259388704       12.4025091708
  C        23.0388857228       16.9568149369       11.4135793843
  C        24.2563944817       16.9281786013       10.7367421333
  C        21.5273719954       17.9070578122       13.1768022124
  C        21.5522108764       17.8964619357       14.5985162980
  C        22.7702997483       17.7752819264       15.3400717232
  C        14.0467241532       17.8290598724       10.2891061108
  C        15.3505906759       17.8870023566       11.0146573481
  C        15.6062484314       18.8908849742       11.9619215469
  C        16.8148838911       18.9127337149       12.6553874840
  C        17.8020749366       17.9333832591       12.4240297781
  C        17.5509905518       16.9537787899       11.4445811357
  C        16.3419395223       16.9274192169       10.7525618800
  C        19.0711838027       17.9171886745       13.1930605366
  C        19.0705293167       17.9150405592       14.6156457606
  C        17.8636438215       17.8188829991       15.3773114082
  C        46.7957873723       17.2126851857       10.1526497138
  C        45.4921986148       17.1345256161       10.8803172056
  C        45.2817528753       16.1537232983       11.8625714500
  C        44.0915105943       16.1226984108       12.5862921165
  C        43.0768935930       17.0724651280       12.3534716186
  C        43.2813628867       18.0277456152       11.3386969421
  C        44.4729802745       18.0630549697       10.6159739069
  C        41.8236276351       17.0831867912       13.1488732491
  C        41.8409141752       17.1083173680       14.5720994939
  C        43.0557996844       17.2138058658       15.3203477013
  C        20.3176579086       17.9249144447       15.3235882793
  C        20.2950165816       17.8968831948       12.5105233721
  C        46.7854560559       17.2357639785        5.8810040961
  C        45.4876477239       17.1409754274        5.1504569178
  C        45.2726200218       16.1525107507        4.1775255344
  C        44.0878625423       16.1326161385        3.4442780176
  C        43.0857876614       17.0978875494        3.6659634089
  C        43.2934391533       18.0587202935        4.6739923823
  C        44.4792379653       18.0852400652        5.4020202214
  C        41.8341580522       17.1199046159        2.8744611207
  C        41.8468111810       17.1256032173        1.4522731616
  C        43.0587296374       17.2189947843        0.6977061881
  C        46.1534734790       26.6372856386        0.7262301803
  C        46.1626210037       26.6560959933        3.5360369846
  C        14.0460506115       17.8320711617        5.7085843593
  C        15.3673471441       17.9084821813        5.0192723197
  C        15.6401458614       18.9250605814        4.0917072979
  C        16.8694442863       18.9642759052        3.4376232192
  C        17.8533880244       17.9856745172        3.6843209356
  C        17.5879550792       16.9993067621        4.6516475407
  C        16.3607880476       16.9594603126        5.3094610931
  C        19.1207040578       17.9618813295        2.9152969976
  C        19.0963663911       17.9366902795        1.4937811048
  C        17.8763176221       17.8281176416        0.7535302500
  C        28.8240718960       14.1583084806       10.4169519999
  C        28.2529349504       12.9730293431       11.1169725795
  C        28.9738207295       12.2631288995       12.0893602845
  C        28.3946812985       11.1638576542       12.7228560690
  C        27.0815798626       10.7499912189       12.4130499555
  C        26.3864181411       11.4436881911       11.4055536164
  C        26.9611200500       12.5392293316       10.7694497938
  C        26.4138439589        9.6568931525       13.1600981725
  C        26.3716561753        9.6852926873       14.5810115103
  C        26.8470702068       10.8051871341       15.3343838014
  C        32.1818993336       21.2311465226       10.1449118812
  C        32.7822571161       22.3944721924       10.8600805448
  C        32.0398808855       23.0621661636       11.8468930304
  C        32.6115893014       24.1016937091       12.5735345676
  C        33.9414285187       24.5006895053       12.3365915452
  C        34.6657977906       23.8506491798       11.3194654280
  C        34.0965743514       22.8062024929       10.5931609950
  C        34.5713897587       25.5755946539       13.1367668551
  C        34.5655551596       25.5462693624       14.5586303428
  C        34.0609658603       24.4296455584       15.2972473910
  C        25.7529640646        8.6054753461       15.2900492232
  C        25.7859557425        8.6041959289       12.4769688287
  C        32.1026137546       21.2224455828        5.8769208660
  C        32.6966701693       22.3684435367        5.1299179419
  C        31.9657806372       23.0261623282        4.1279016747
  C        32.5485728784       24.0553941642        3.3921463061
  C        33.8756857007       24.4583825284        3.6405578728
  C        34.5890895355       23.8137815888        4.6693128307
  C        34.0117008804       22.7786158537        5.3998678883
  C        34.5177696073       25.5397837364        2.8577220273
  C        34.5366247521       25.5288602934        1.4357836755
  C        34.0460365811       24.4219945928        0.6740019680
  C        40.6031510866       17.1239109899        0.7390930372
  C        40.6075619065       17.1469456781        3.5495725434
  C        28.7283269881       14.0948752302        5.7816460845
  C        28.1292577941       12.9366862860        5.0555999433
  C        28.8650761213       12.2426531033        4.0826073604
  C        28.2912494460       11.1744034809        3.3973822389
  C        26.9636223309       10.7753735370        3.6543466710
  C        26.2463306052       11.4558508249        4.6565076527
  C        26.8195573246       12.5221378373        5.3469576573
  C        26.3258558795        9.6835155791        2.8790392948
  C        26.3273018133        9.6996668051        1.4568951189
  C        26.8244709134       10.8130454706        0.7097957772
  C        18.1357869639        3.1812420148       10.3175042524
  C        17.4062886635        4.2784696323       11.0157264383
  C        16.3903995622        3.9998121899       11.9430313274
  C        15.7427012444        5.0397086990       12.6066804235
  C        16.0943928088        6.3835395617       12.3668497137
  C        17.0837122861        6.6532287311       11.4029754951
  C        17.7328154768        5.6160070682       10.7377402789
  C        15.4701056604        7.4912522980       13.1300794251
  C        15.4852057525        7.4903232345       14.5519043591
  C        16.1870241193        6.4967635571       15.3050492474
  C        42.9459275984       31.8595313875       10.0728954164
  C        43.6463939335       30.7719798611       10.8167711648
  C        44.5918249606       31.0933370158       11.8029056698
  C        45.1974388473       30.0878647804       12.5507195040
  C        44.8712193147       28.7347752918       12.3357924720
  C        43.9456421618       28.4204097359       11.3223752398
  C        43.3369586455       29.4254752246       10.5742110533
  C        45.4887873529       27.6554015904       13.1388720622
  C        45.4930291217       27.6810538283       14.5605643967
  C        44.8058899105       28.6890098802       15.3072572898
  C        14.8566225683        8.5631043690       15.2643067821
  C        14.8749141947        8.5631221903       12.4513999275
  C        42.9465827280       31.9617573909        5.8093818857
  C        43.6917165955       30.8857346909        5.0956254355
  C        44.6560448804       31.1914524531        4.1229745289
  C        45.2778177366       30.1719513935        3.4052924369
  C        44.9542023437       28.8215708132        3.6431901605
  C        44.0209992984       28.5238088996        4.6542909575
  C        43.3926978630       29.5407500059        5.3662479449
  C        45.5632530184       27.7241045949        2.8579289133
  C        45.5334414452       27.7173979044        1.4365889716
  C        44.8271308792       28.7076876530        0.6836701875
  C        35.1427206796       26.6213264593        0.7315013701
  C        35.1254547747       26.5999490964        3.5415576649
  C        18.1489097358        3.2469516130        5.7071274337
  C        17.4307433240        4.3437824870        4.9974811381
  C        16.4153853313        4.0528083782        4.0739174290
  C        15.7670018075        5.0833921288        3.3984952704
  C        16.1215053634        6.4286199444        3.6213827017
  C        17.1129375048        6.7119326096        4.5785536140
  C        17.7605878770        5.6829464406        5.2582652962
  C        15.4910614310        7.5241053909        2.8487252325
  C        15.4967004978        7.5074175540        1.4276365949
  C        16.1932686325        6.5056232365        0.6808976503
  H        10.6722552925       12.4650545612        3.9053610816
  H        11.6945209587       10.5501705461        2.6636482180
  H        15.3922329682       11.1696167451        4.7713905455
  H        14.3517389284       13.0724324643        6.0163969157
  H        13.3760392919       11.6310265695        1.2014752986
  H        50.3229223767       22.7482908629        3.9868904324
  H        49.3199055977       24.6229717595        2.6809909949
  H        45.6420912760       24.1610755416        4.8636741514
  H        46.6630725211       22.2898897149        6.1718264528
  H        47.6301159547       23.5759641412        1.2461806041
  H        14.8728363163        8.5886088087        4.6084983744
  H        50.2872142912       22.7028403637       12.0599663262
  H        49.2694701716       24.5757545606       13.3599802029
  H        45.6104193672       24.1089323584       11.1464865690
  H        46.6523703577       22.2534325358        9.8323149880
  H        47.6081606858       23.5520563461       14.7968487273
  H        40.5871207079       17.0182416360       11.3960017554
  H        48.6867823977       14.0953490165        7.7998545420
  H        10.6810612178       12.4662619083       12.0927761649
  H        11.6892098515       10.5241792653       13.2965229574
  H        15.3941019941       11.1598916616       11.2067000670
  H        14.3655826145       13.0883707355        9.9914925504
  H        13.3755748118       11.6219528878       14.7531851361
  H        47.9301389941       14.2192683537        9.7112723203
  H        47.7798651726       14.3734876029        6.4951131724
  H        49.0815088786       18.5511141662       10.8665824342
  H        10.4158603555       14.1343695015        7.9991302202
  H        24.4800724140        3.0232433950        3.9098974601
  H        25.6238589025        4.8737736769        2.6769108948
  H        23.2430377533        7.7527583409        4.8082358431
  H        22.1191169071        5.8922766973        6.0445299643
  H        23.8461368498        5.7831217380        1.2222809545
  H        36.3775459057       32.1825492350        3.9629651627
  H        35.2567138685       30.3563029247        2.6830925892
  H        37.5223164526       27.4364563817        4.8844123340
  H        38.6230732933       29.2755592062        6.1729771183
  H        37.0295670544       29.4441646213        1.2678070228
  H        25.7311175292        8.5995369532        4.6360590943
  H        36.4522183136       32.2365567005       12.1098590869
  H        35.3420536788       30.4151300597       13.4019605048
  H        37.5329158291       27.4850672915       11.1382010339
  H        38.6174388538       29.3181966936        9.8333309699
  H        37.0475697963       29.4632502951       14.8195003829
  H        46.1095532334       26.5877491086       11.3856339342
  H        44.6682299177       35.1160112892        7.8139800973
  H        24.4723972835        3.0344000274       12.0632846283
  H        25.6382834791        4.8622907731       13.2936159008
  H        23.2448301835        7.7723122818       11.2204203312
  H        22.0915597042        5.9326458255        9.9881520704
  H        23.8576454452        5.7856578649       14.7743551744
  H        44.9536428716       34.3903318329        9.6951893930
  H        44.9012942173       34.2069044814        6.4903697498
  H        40.6662559322       33.2097358828       10.8533726761
  H        23.1513882910        1.9582933185        8.0035336273
  H        25.8308738791       19.6385981408        3.8867472942
  H        23.6615210593       19.6860367589        2.6583255355
  H        22.3401943047       16.2424254176        4.8714376085
  H        24.5145325293       16.2096737478        6.0989338922
  H        23.7248147844       17.6587762789        1.2435698990
  H        35.1387908006       15.4836050129        3.9533151242
  H        37.2571707668       15.4518704509        2.6413863138
  H        38.7051632646       18.8030040423        4.9182396562
  H        36.5823941696       18.8134567536        6.2360504096
  H        37.2186216557       17.4424943896        1.2466803487
  H        20.3601795863       17.9879151795        4.6695677585
  H        35.0626644018       15.4574842678       12.2646264668
  H        37.2334892743       15.3944839375       13.4846294660
  H        38.6775893778       18.6577972773       11.0803777532
  H        36.5115545604       18.6864178989        9.8389604013
  H        37.2118573147       17.4112372688       14.8000392801
  H        35.1526572888       26.6750303642       11.3896513574
  H        28.5000113651       21.0838895949        7.8972993850
  H        25.7672851449       19.6097525100       12.1868102027
  H        23.5838654183       19.6693865818       13.3972625391
  H        22.2820823287       16.2021740097       11.2094160984
  H        24.4642741101       16.1677838955        9.9877542540
  H        23.7018210661       17.6438117666       14.7976984688
  H        28.9780384810       21.7310942775        9.7600135208
  H        29.1815221585       21.7290634109        6.5707255033
  H        32.0992688651       18.5436944429       11.0231762306
  H        27.3912193350       19.0632641510        8.0699283231
  H        14.8475031084       19.6498301629       12.1393115057
  H        17.0095023688       19.6975666480       13.3832452284
  H        18.3027458936       16.1898187073       11.2569017722
  H        16.1368782903       16.1578726177       10.0121851028
  H        16.9207545581       17.7042709572       14.8504247775
  H        46.0695376891       15.4291961148       12.0554736264
  H        43.9360050502       15.3558067381       13.3420258091
  H        42.5084658603       18.7697717890       11.1488623800
  H        44.6435894651       18.8191182597        9.8529204235
  H        43.9934511683       17.3199978868       14.7823325555
  H        20.2884107102       17.9276237909       11.4223919561
  H        46.0489027014       15.4119358147        3.9984317435
  H        43.9252794009       15.3626189429        2.6932047821
  H        42.5271235308       18.8102414971        4.8526239498
  H        44.6574986256       18.8458725334        6.1582810440
  H        43.9987086931       17.3283121060        1.2311341796
  H        46.1995110705       26.6825423193        4.6235226284
  H        52.7412457504       21.0627466130        8.1946485466
  H        14.8789623034       19.6781074400        3.9000112316
  H        17.0797030786       19.7550456621        2.7207436885
  H        18.3391689783       16.2377045371        4.8503544156
  H        16.1405310118       16.1844727197        6.0395462250
  H        16.9428678347       17.7210094657        1.2978124292
  H        52.3230165291       21.6733434732        6.2941428820
  H        52.0139395279       21.7025773064        9.4956821211
  H        49.0682250623       18.6080130848        5.2037262359
  H        13.2476245246       19.0161140499        7.9775009801
  H        29.9834970260       12.5847396430       12.3371745972
  H        28.9577262881       10.6136615560       13.4736112933
  H        25.3716782853       11.1397469445       11.1568869024
  H        26.4168397475       13.0913012759       10.0076391038
  H        27.2041662498       11.6809648966       14.8014821372
  H        31.0197646609       22.7392228996       12.0405382126
  H        32.0302327061       24.6186644936       13.3337466523
  H        35.6950394337       24.1488055994       11.1307024040
  H        34.6626278789       22.2804273911        9.8277262556
  H        33.7091826471       23.5588050828       14.7516395455
  H        25.8318429581        8.5847230631       11.3893662953
  H        30.9428096862       22.7130398302        3.9319756113
  H        31.9746099904       24.5660919247        2.6219612286
  H        35.6164462271       24.1129091931        4.8665535851
  H        34.5688150521       22.2594804888        6.1762219544
  H        33.6820798167       23.5455520116        1.2024166087
  H        40.6104803453       17.1096368230        4.6373526828
  H        32.5206528173       14.1432907079        8.2112298527
  H        29.8877782567       12.5518480939        3.8796105644
  H        28.8707810101       10.6336581573        2.6523420598
  H        25.2190408041       11.1625631129        4.8632099696
  H        26.2600540603       13.0628420423        6.1066191318
  H        27.1630804162       11.6945935775        1.2461680351
  H        33.2968584299       14.2337427286        6.4412227930
  H        33.3996069897       14.3129135970        9.6230153804
  H        32.0961032486       18.4990276261        5.1497855513
  H        30.1912064624       14.1473536288        8.0704013593
  H        16.1184960090        2.9632974061       12.1296263244
  H        14.9532125909        4.8203218212       13.3223502297
  H        17.3658991404        7.6861799782       11.2097348567
  H        18.5149357475        5.8187723075       10.0100296933
  H        16.7535243786        5.7393541326       14.7714408773
  H        44.8279033131       32.1404094528       11.9773713649
  H        45.9371563951       30.3416085013       13.3068024564
  H        43.6831048340       27.3783406461       11.1520892462
  H        42.6004717777       29.1901504734        9.8094737759
  H        44.2305305737       29.4368301130       14.7690366742
  H        14.8512331852        8.5465025695       11.3631407972
  H        44.8995869181       32.2340836025        3.9313100386
  H        46.0246747022       30.4131224710        2.6519441952
  H        43.7643979903       27.4840016516        4.8461622812
  H        42.6465361786       29.3178622777        6.1249850804
  H        44.2686204373       29.4705596811        1.2183390316
  H        35.0812730402       26.6135672408        4.6290043485
  H        36.6051651533       35.1341977226        8.1806385735
  H        16.1441092342        3.0132063479        3.9044410422
  H        14.9746217785        4.8563465458        2.6885554525
  H        17.3962825912        7.7474139666        4.7555432350
  H        18.5431637735        5.8936263704        5.9832864807
  H        16.7648051546        5.7553987616        1.2192042040
  H        36.2788551538       34.4825922238        6.2729936996
  H        36.3806977493       34.2092827915        9.4997064504
  H        40.5807367385       33.2033969331        5.1532941903
  H        17.4718415055        1.9479707534        7.9743355015
  H        28.9739703047       19.3147360459       12.5180176973
  H        29.6091854293       19.6417023378        3.5807758420
  H        31.4215325993       15.7334644357        3.4636325604
  H        28.0173173828       17.9223779803       14.7463905276
  H        29.5865231725       15.4249935241       14.3033290941
  H        31.2900764534       19.9392341021        1.4626971551
  H        32.6585454323       17.7738059163        1.1524755210
  H        28.5652638647       17.6836658412        2.1232699156
  H        31.9078853401       18.7366572514       14.6948186228
  H        18.8529257024        0.8690891563       12.3352159542
  H        40.5279441265       35.2292791919        3.9520307793
  H        42.3249004898       34.4198213684        3.5904580682
  H        22.0878315804        0.6919684903       12.3521315689
  H        11.5970164037       18.7124987782       12.3822682406
  H        52.2654060280       18.4315660234        3.6776647436
  H        49.2559863899       16.4763404180        3.5841498378
  H        10.1502049015       15.7982313754       12.2925231537
  H        50.8505864563       17.6924550415        3.9542082179
  H        10.0460403363       17.3948855503       12.0516513860
  H        20.2140400072        0.0022597391       12.0422111627
  H        39.1835848361       36.1244274057        3.6863793967
 Ni        30.9483686983       17.9591553977        2.8302357338
 Ni        31.0753442629       16.6616835010       -0.2479948875
 Ni        29.6316035083       18.9182147862        0.0829690775
 Ni        30.2694717464       17.6190786267       13.2442451900
  O        10.6500212881       14.3655544230        5.4858144629
  O        12.6130811035       14.6579143768        6.5836913288
  O        49.1477018409       16.8455465208        7.9897309863
  O        50.3501917131       20.9359699382        5.6479050977
  O        48.3488376008       20.5928454075        6.6661988769
  O        11.0519167631       17.0538470064        6.5007949046
  O        50.3209013838       20.8816677371       10.4070774123
  O        48.3465127222       20.5867156243        9.3271313705
  O        49.5435818388       18.2486518032       10.0681581838
  O        12.3588706935       18.6246721611        7.9997205764
  O        48.6931560735       14.1487212249        6.7512104668
  O         8.2098035411       14.2107225246        9.3226776885
  O        10.7352788735       14.5070502872       10.6640470819
  O        12.5717780080       14.5828509746        9.3286106870
  O        22.8450727170        2.0436808286        5.4867989602
  O        21.6071244652        3.5937402914        6.5882488722
  O        42.0585305744       34.1382036701        7.9792717806
  O        37.9816432647       33.1372589661        5.5725492227
  O        39.2179552795       31.5756109877        6.6666514254
  O        20.3089228722        1.0406967023        6.5029012518
  O        38.0246207211       33.1852233001       10.4154680670
  O        39.2196507286       31.5842287310        9.3264026635
  O        40.6525957510       33.7695136521       10.0602304330
  O        18.2562434466        1.3763174649        7.9968852654
  O        44.6224079369       35.1007679286        6.7588104293
  O        24.2052773318        0.0001697463        9.3210020474
  O        22.7546986834        2.0595281849       10.5855575436
  O        21.6274182319        3.5999375503        9.3495330495
  O        27.4968659171       18.7531808422        5.4973912780
  O        26.7634199179       16.9346813120        6.6520998215
  O        30.6554199439       19.3502111218        8.0679909658
  O        33.5843444352       16.2764969922        5.6681075969
  O        34.2698521493       18.1674797024        6.7402022928
  O        29.5734634884       17.0599337480        6.5791405751
  O        33.4276235342       16.3170272329       10.5829062911
  O        34.2206146409       18.1004164052        9.4116959924
  O        31.6058354466       18.2478715315       10.2391575267
  O        30.2948619071       15.1129366996        8.0685941058
  O        28.5538628246       21.0329570376        6.8399557271
  O        28.5133452246       20.9568477915        9.4005321401
  O        27.4529439031       18.6776788668       10.6570089886
  O        26.6928799692       16.9277263149        9.4122688309
  O        13.1482776869       18.6930265198       10.5872624260
  O        13.9191534361       16.9165576606        9.4051499644
  O        50.5960865598       19.3501965323        8.0204156126
  O        47.6791181021       16.3278276846       10.4184074655
  O        46.9490879968       18.1757364840        9.3260663001
  O        11.0696738471       17.0156126692        9.4894717355
  O        47.6741637460       16.3363029940        5.6514896051
  O        46.9251158940       18.2358413453        6.6631091396
  O        49.5683186704       18.3175949833        5.9824672776
  O        10.3185076706       15.1001508275        7.9970462789
  O        52.6708800318       21.0278031386        9.2418400235
  O        12.1469178437       20.8910402371        6.6732842130
  O        13.1080418843       18.6136847455        5.3258408229
  O        13.9573318861       16.9877005325        6.6656514085
  O        29.9966377235       14.5837192854       10.7457405944
  O        28.0925440598       14.6570841495        9.4963293974
  O        32.0708811784       16.8464734981        8.0621929267
  O        30.9689462660       20.9488002869       10.4055153645
  O        32.9493460361       20.5844069204        9.3367314711
  O        29.5599758941       17.0725754955        9.5681627617
  O        30.8715348507       20.9398463442        5.6612118228
  O        32.8758342306       20.5850650325        6.6678815024
  O        31.6829479639       18.2508468886        5.9970068858
  O        28.2816473115       18.6757296410        8.0733914162
  O        32.4864643444       14.2067937458        9.3045600067
  O        32.3990712502       14.2209999700        6.8147345209
  O        29.8809873968       14.5069870293        5.4123658399
  O        28.0423515389       14.5867644357        6.7458101963
  O        17.8894980301        1.9665831276       10.6623730271
  O        18.9563766813        3.5271451803        9.4078722573
  O        39.1686985445       34.1388743718        7.9970975560
  O        43.2804203177       33.0589033459       10.3316546978
  O        42.0344368048       31.5066683424        9.2417144173
  O        20.3179937241        1.0374733754        9.4796979961
  O        43.2761034261       33.1826573841        5.5747096681
  O        42.0050872947       31.5841159907        6.5830021023
  O        40.5786013668       33.7749434541        5.9361867177
  O        22.3677975946        1.3856252874        7.9985336483
  O        36.6729264572       35.0998409633        9.2333172576
  O        16.4460181424        0.0643317839        6.6682402901
  O        17.9367399606        2.0434025331        5.3265025559
  O        18.9195406130        3.5931719751        6.6661970179
  O        29.8212665244       18.8350856666        4.0895665774
  O        29.7385959115       18.9831586261       12.0021285798
  O        31.2646466754       16.4862888488        4.0615591859
  O        31.9701965172       17.1355797488        1.4134463402
  O        28.4660952404       17.5092427235        1.1616510253
  O        30.4165197453       15.9081394041       14.1600088127
  O        31.9438533551       17.8060301714       14.4030576953
  O        30.4969953550       19.4204545672        1.6777130761
  O        28.7238727803       18.5444342614       14.4913060245
  O        39.4568284810       35.2439222786        4.0019909623
  O        19.1409485219        0.0046233150       11.9904918276
  O        41.9696729835       35.1730983158        4.0871451226
  O        21.6913479616       -0.0691381721       11.8960342247
  O        51.3654299432       18.6143057802        4.0055896730
  O        10.7510829113       18.7472544851       11.9049724465
  O        50.0801580217       16.4127840134        4.0918574217
  O         9.5242728486       16.4832253215       11.9915791536
 Zr         9.2971463431       16.0531480282        6.1824184029
 Zr        49.8364329796       16.0075689964        9.7467734645
 Zr        22.0729265461        0.0305307946        6.1889661498
 Zr        42.4610833623       35.1543884880        9.8017386250
 Zr        29.5998813330       19.0776827886        6.2702516147
 Zr        29.5521055312       19.1826991575        9.8855131640
 Zr        11.0378013094       19.0518868393        9.8280462151
 Zr        11.0438052914       19.1549002680        6.2507147798
 Zr        31.3369748946       16.0910363235        9.7692498243
 Zr        31.3616443287       16.0150472681        6.2076840581
 Zr        18.6015881836       -0.0012282360        9.7629248257
 Zr        18.5072651714       -0.0067777692        6.2140189055
 Zr        12.3027179967       16.3231885612        7.9905079908
 Zr        48.6162659650       18.8323766496        8.0108111130
 Zr        20.3174219355        2.4756396954        7.9916880957
 Zr        40.6442302004       32.6877398957        7.9779681503
 Zr        28.3247963621       16.3450050813        8.0757299846
 Zr        32.6151820495       18.8453021044        8.0398788400
  H        29.1046233537       16.7539102794        0.9812124293
  H        30.3860692170       19.9097707365       -0.6553764582
  H        30.2977971547       15.7121135723        0.5741138000
