     573
 i =       76, E =     -4762.7734655900
  C        11.8587732306       14.0535979850        5.7415785569
  C        12.4563325165       12.8906893445        5.0232160098
  C        11.7044867874       12.1712902659        4.0820331991
  C        12.2809030422       11.1090654479        3.3897282513
  C        13.6216778844       10.7397207323        3.6170368533
  C        14.3550641975       11.4438426539        4.5899337036
  C        13.7821287414       12.5088397110        5.2813937469
  C        14.2611966905        9.6489814295        2.8436702905
  C        14.2562506480        9.6567283308        1.4219632866
  C        13.7429042067       10.7587818760        0.6680812868
  C        49.1268617528       21.2330036871        5.8797644293
  C        48.5500987943       22.4010198408        5.1526752448
  C        49.3001594971       23.0683519612        4.1717180560
  C        48.7332686862       24.1075263656        3.4385103547
  C        47.4027344885       24.5091924716        3.6670972535
  C        46.6717520163       23.8603065246        4.6805838050
  C        47.2341675247       22.8153801547        5.4099470798
  C        46.7724929820       25.5869263177        2.8698318847
  C        46.7614984828       25.5573751349        1.4480557007
  C        47.2615066083       24.4423353887        0.7045260142
  C        14.8601493543        8.5703708076        0.7086833653
  C        14.8921962619        8.5971528412        3.5203054283
  C        49.1132324569       21.2033193519       10.1453682979
  C        48.5278701561       22.3647793810       10.8724947601
  C        49.2672388235       23.0256122163       11.8652280651
  C        48.6910035147       24.0602262397       12.5967001718
  C        47.3605530976       24.4569513211       12.3586184719
  C        46.6400043365       23.8119465200       11.3352541247
  C        47.2134534429       22.7759554922       10.6034833845
  C        46.7221465365       25.5319572224       13.1496754109
  C        46.7337832764       25.5282768999       14.5713902914
  C        47.2493048241       24.4290947322       15.3277600166
  C        40.5981420996       17.0881634272       15.2895027175
  C        40.5866013649       17.0520361644       12.4791022461
  C        11.8829339391       14.0866125429       10.2855251469
  C        12.4722294141       12.9108204631       10.9898417360
  C        11.7145412052       12.1773562634       11.9156091957
  C        12.2810780325       11.0948578003       12.5840157489
  C        13.6200191819       10.7213582987       12.3525247172
  C        14.3582132418       11.4372479723       11.3921372050
  C        13.7928385511       12.5184627068       10.7194531218
  C        14.2535290773        9.6244805072       13.1228891659
  C        14.2522090032        9.6443385929       14.5447358693
  C        13.7422667029       10.7532387148       15.2918278402
  C        22.5103164952        3.2454803891        5.7478803146
  C        23.2204204286        4.3483921264        5.0375065290
  C        24.2184323695        4.0632969732        4.0934522288
  C        24.8479874271        5.0982432611        3.4060142473
  C        24.4960261509        6.4424256976        3.6409445069
  C        23.5222519793        6.7189396404        4.6184862965
  C        22.8886299582        5.6858075028        5.3050678306
  C        25.1132684187        7.5467246129        2.8686924808
  C        25.1047257561        7.5399816920        1.4462461605
  C        24.4138354774        6.5409414301        0.6895316620
  C        38.3034046697       31.9288320368        5.8480739422
  C        37.5759423906       30.8378803066        5.1370492813
  C        36.6167258822       31.1393914591        4.1581781077
  C        36.0016827513       30.1176674972        3.4395674133
  C        36.3307082937       28.7688681587        3.6782784357
  C        37.2606625262       28.4748171497        4.6932693366
  C        37.8798367695       29.4952335422        5.4105509197
  C        35.7302285671       27.6753145997        2.8811069689
  C        35.7623553229       27.6891600862        1.4595709588
  C        36.4663522828       28.6925623545        0.7218702827
  C        25.7358830244        8.6109900686        0.7345749899
  C        25.7056614902        8.6202638493        3.5470130345
  C        38.3285488240       31.9617825054       10.1557940365
  C        37.6071481777       30.8869192340       10.8962517723
  C        36.6773080651       31.1927161353       11.9017152512
  C        36.0686900045       30.1721288448       12.6298393414
  C        36.3758348568       28.8203184356       12.3761332048
  C        37.2828153776       28.5244571795       11.3401682998
  C        37.8933818710       29.5414831804       10.6132801568
  C        35.7712264810       27.7189481430       13.1601842341
  C        35.7833859645       27.7114486992       14.5822391847
  C        36.4757126424       28.7036709341       15.3450816480
  C        46.1357549188       26.6208950520       15.2815520384
  C        46.0881797042       26.5803252456       12.4736436778
  C        22.4726466600        3.2593285469       10.2563280843
  C        23.1907015263        4.3660630504       10.9656327173
  C        24.2035240338        4.0743403670       11.8941440308
  C        24.8527351155        5.0999294464       12.5792692143
  C        24.5117444227        6.4504843005       12.3617685314
  C        23.5236080850        6.7354177285       11.3997763596
  C        22.8703805563        5.7099851269       10.7139858251
  C        25.1522356795        7.5440989022       13.1413035288
  C        25.1250896759        7.5382344239       14.5650726628
  C        24.4207997256        6.5418006300       15.3125254248
  C        26.6192451134       17.8657910577        5.7809911038
  C        25.3135467500       17.9111014536        5.0578822024
  C        25.0622600671       18.8963477754        4.0897428338
  C        23.8491166440       18.9169750806        3.4046343985
  C        22.8510797386       17.9554564900        3.6641311497
  C        23.0993339555       16.9931570041        4.6613622365
  C        24.3141088364       16.9667662684        5.3444734161
  C        21.5783544568       17.9396533155        2.8995103156
  C        21.5788340759       17.9144917528        1.4768148553
  C        22.7840226490       17.7836422384        0.7170223594
  C        34.4375535702       17.1991207948        5.9172164167
  C        35.7310190234       17.1531544818        5.1729315579
  C        35.9333605833       16.1935047953        4.1681071314
  C        37.1136456049       16.1831299757        3.4297964242
  C        38.1272102140       17.1312238757        3.6732044498
  C        37.9278165043       18.0709516058        4.7032208743
  C        36.7444935058       18.0869718531        5.4392869267
  C        39.3781558744       17.1419314398        2.8783984291
  C        39.3622158376       17.1439733367        1.4558705951
  C        38.1495319965       17.2662178996        0.7077466672
  C        20.3322420951       17.9349792317        0.7680355627
  C        20.3530574726       17.9443364228        3.5813701073
  C        34.3385287766       17.1490874089       10.2718549865
  C        35.6463416839       17.0549310429       10.9774806192
  C        35.8591588056       16.1155912884       11.9984110923
  C        37.0703914980       16.0913385787       12.6865263317
  C        38.0971195939       17.0088891266       12.3830327121
  C        37.8878688487       17.9180266058       11.3281469513
  C        36.6799765242       17.9444176847       10.6380712500
  C        39.3598750247       17.0466469394       13.1568644370
  C        39.3530671390       17.0968725428       14.5786043611
  C        38.1449652771       17.2431438449       15.3313182238
  C        35.1561681898       26.6305839058       15.2864997543
  C        35.1822746855       26.6474399030       12.4773059869
  C        26.5699703975       17.8268750913       10.3272595729
  C        25.2571829215       17.8759553590       11.0317566659
  C        25.0040507851       18.8688809973       11.9905951214
  C        23.7857222951       18.8965404946       12.6629834251
  C        22.7930610038       17.9302912981       12.4032763641
  C        23.0418028421       16.9625723286       11.4128145930
  C        24.2596324742       16.9333644967       10.7368471920
  C        21.5300429055       17.9108877433       13.1765849500
  C        21.5540300096       17.8987128264       14.5983483446
  C        22.7716374342       17.7762796768       15.3405538949
  C        14.0472083492       17.8293143063       10.2889063343
  C        15.3516889036       17.8876358604       11.0139153717
  C        15.6077879526       18.8916361822       11.9609957842
  C        16.8167328849       18.9138901776       12.6539668860
  C        17.8043597724       17.9350488842       12.4224110787
  C        17.5529764671       16.9553351849       11.4431366656
  C        16.3435189158       16.9284677932       10.7515970193
  C        19.0735253862       17.9191145819       13.1917136793
  C        19.0722840987       17.9163913998       14.6143467922
  C        17.8651852440       17.8189931989       15.3755193435
  C        46.7950635330       17.2117260402       10.1520378640
  C        45.4902648301       17.1298341150       10.8776959949
  C        45.2815592855       16.1472670321       11.8586685743
  C        44.0908281084       16.1119390281       12.5814312016
  C        43.0730186580       17.0582949620       12.3482574557
  C        43.2760614670       18.0156606100       11.3351296977
  C        44.4683658256       18.0554537714       10.6134564371
  C        41.8195969313       17.0643469559       13.1440988139
  C        41.8380226824       17.0908047432       14.5674014466
  C        43.0530892674       17.2021850796       15.3144902192
  C        20.3190825719       17.9259321412       15.3228735477
  C        20.2978184851       17.9004551637       12.5098503114
  C        46.7855068645       17.2361128215        5.8801007849
  C        45.4882919687       17.1413071731        5.1481076871
  C        45.2748010755       16.1533841967        4.1742602602
  C        44.0907161976       16.1325784035        3.4399597526
  C        43.0870255882       17.0962783107        3.6613193847
  C        43.2937322200       18.0574947314        4.6692165732
  C        44.4789126854       18.0849152436        5.3982789269
  C        41.8351588342       17.1149911474        2.8698371310
  C        41.8462721624       17.1155417671        1.4475612373
  C        43.0572135395       17.2103747532        0.6917233550
  C        46.1534506881       26.6372585565        0.7263236945
  C        46.1625760808       26.6560652642        3.5359722781
  C        14.0460462893       17.8323184521        5.7088685173
  C        15.3672113352       17.9081912872        5.0190242730
  C        15.6398337569       18.9240856092        4.0905944888
  C        16.8688714537       18.9628880967        3.4358655983
  C        17.8533125519       17.9849368858        3.6834133205
  C        17.5876114960       16.9982819750        4.6504502160
  C        16.3606287331       16.9589401689        5.3087767347
  C        19.1206655349       17.9608584775        2.9143119024
  C        19.0969205621       17.9363025354        1.4927064886
  C        17.8772276789       17.8277901156        0.7518006012
  C        28.8248093903       14.1571634620       10.4155047285
  C        28.2540382080       12.9714763997       11.1147911514
  C        28.9745287511       12.2611096738       12.0871479129
  C        28.3948629355       11.1624799496       12.7212182951
  C        27.0813234936       10.7495607830       12.4118903011
  C        26.3867274994       11.4431316853       11.4039136068
  C        26.9619858730       12.5382013252       10.7675510997
  C        26.4134024598        9.6566637106       13.1590210022
  C        26.3705580180        9.6856774691       14.5799277865
  C        26.8450838852       10.8060240296       15.3332301715
  C        32.1828762313       21.2301354708       10.1455412125
  C        32.7824045238       22.3938318080       10.8604566417
  C        32.0401526436       23.0612663123       11.8475364207
  C        32.6119210730       24.1008739665       12.5740898737
  C        33.9416382078       24.5001200467       12.3367307882
  C        34.6657273967       23.8505044651       11.3190707029
  C        34.0964973084       22.8060088104       10.5928640799
  C        34.5714972211       25.5751352894       13.1369257297
  C        34.5665267047       25.5453807896       14.5588285160
  C        34.0624324903       24.4285088601       15.2974921227
  C        25.7520212502        8.6058794813       15.2891508843
  C        25.7861006787        8.6036103094       12.4760061937
  C        32.1031575611       21.2222589285        5.8782939910
  C        32.6977315881       22.3679639484        5.1308926041
  C        31.9666299013       23.0262242665        4.1294681271
  C        32.5496221718       24.0552241156        3.3934861675
  C        33.8772053933       24.4573463498        3.6408608849
  C        34.5908287821       23.8119844489        4.6690428988
  C        34.0132573896       22.7769625044        5.3998380996
  C        34.5190816487       25.5388044466        2.8578534164
  C        34.5382648602       25.5276934592        1.4359674770
  C        34.0475081035       24.4208966354        0.6742654241
  C        40.6019516378       17.1065006501        0.7353179489
  C        40.6089365611       17.1435445523        3.5456748176
  C        28.7254487158       14.0964755716        5.7815791365
  C        28.1261804661       12.9379856009        5.0559456724
  C        28.8614986901       12.2466842057        4.0807474688
  C        28.2882953674       11.1782616444        3.3952674264
  C        26.9617352675       10.7767143236        3.6539129389
  C        26.2449870543       11.4546515208        4.6581441806
  C        26.8178637338       12.5207269677        5.3491982202
  C        26.3243031184        9.6848826065        2.8781794172
  C        26.3256726060        9.7006894271        1.4559308534
  C        26.8219671750       10.8143994889        0.7086463704
  C        18.1355438894        3.1811529402       10.3171067795
  C        17.4060585793        4.2783134442       11.0154443806
  C        16.3903668993        3.9998242652       11.9430016171
  C        15.7425716417        5.0397070986       12.6065552979
  C        16.0943093904        6.3835059742       12.3669300521
  C        17.0835564191        6.6531380638       11.4030355236
  C        17.7327751082        5.6159055290       10.7379228546
  C        15.4699374798        7.4911139376       13.1300919597
  C        15.4851753729        7.4903172477       14.5518202727
  C        16.1867501061        6.4967047296       15.3049781540
  C        42.9459587395       31.8596480105       10.0729459543
  C        43.6463824036       30.7720106282       10.8168729062
  C        44.5917672661       31.0933571154       11.8030861453
  C        45.1975246578       30.0878254584       12.5507328643
  C        44.8713105505       28.7347200916       12.3357569471
  C        43.9456759601       28.4203641916       11.3223602911
  C        43.3368128030       29.4254850104       10.5743303059
  C        45.4889228692       27.6554211303       13.1389362749
  C        45.4930181480       27.6810089640       14.5606341141
  C        44.8059180933       28.6890260482       15.3072846243
  C        14.8562349840        8.5627993431       15.2642391331
  C        14.8747515089        8.5629861687       12.4515529915
  C        42.9465450530       31.9617052593        5.8089845837
  C        43.6918429004       30.8855886350        5.0955820501
  C        44.6562658461       31.1914616847        4.1230888344
  C        45.2778143557       30.1718556402        3.4054078443
  C        44.9542646255       28.8215022989        3.6432251006
  C        44.0210287595       28.5238856360        4.6542641688
  C        43.3927442932       29.5406616756        5.3664097060
  C        45.5632382257       27.7240754378        2.8579493594
  C        45.5335073343       27.7174189521        1.4366431374
  C        44.8271594023       28.7076260951        0.6836807231
  C        35.1437668794       26.6204324136        0.7316242252
  C        35.1265916758       26.5990473054        3.5415829025
  C        18.1490101691        3.2470982599        5.7068543543
  C        17.4305174562        4.3439581823        4.9975708177
  C        16.4152889971        4.0526698492        4.0739938226
  C        15.7669721256        5.0832564308        3.3985597908
  C        16.1215869152        6.4285355947        3.6211839702
  C        17.1129780250        6.7119406915        4.5784463087
  C        17.7606583007        5.6830687987        5.2582891195
  C        15.4909455156        7.5241569102        2.8487117417
  C        15.4965060923        7.5073364696        1.4275638137
  C        16.1931424040        6.5055949331        0.6807977805
  H        10.6721937354       12.4650420133        3.9053453341
  H        11.6944868212       10.5502161582        2.6635736500
  H        15.3923134779       11.1697672466        4.7712071333
  H        14.3518190526       13.0725395206        6.0162917108
  H        13.3759017021       11.6308945747        1.2014204561
  H        50.3228740015       22.7483141457        3.9869935659
  H        49.3198332031       24.6228062810        2.6810014893
  H        45.6422761101       24.1611271962        4.8637625772
  H        46.6631655724       22.2901374354        6.1720499082
  H        47.6301585715       23.5759922961        1.2461898774
  H        14.8728142608        8.5885881953        4.6086190533
  H        50.2873307456       22.7028192013       12.0600059169
  H        49.2695419729       24.5757576403       13.3600453101
  H        45.6105628125       24.1091442544       11.1463239847
  H        46.6524919651       22.2536343598        9.8321264754
  H        47.6082378726       23.5520541890       14.7968331241
  H        40.5822978465       16.9947168465       11.3921120199
  H        48.6868309179       14.0953521220        7.7999329936
  H        10.6809643729       12.4662215350       12.0927296129
  H        11.6891437553       10.5242409730       13.2964163771
  H        15.3938002303       11.1596899565       11.2065807995
  H        14.3654113144       13.0881274911        9.9913346577
  H        13.3754035385       11.6218407342       14.7531945668
  H        47.9301312012       14.2192281442        9.7113541345
  H        47.7798325768       14.3733642379        6.4950119427
  H        49.0812627549       18.5509630993       10.8664370521
  H        10.4158834796       14.1344799553        7.9989826985
  H        24.4806307922        3.0236887890        3.9099936198
  H        25.6239539848        4.8746146896        2.6770834791
  H        23.2405841155        7.7529836409        4.8063251617
  H        22.1170117277        5.8922899346        6.0428236761
  H        23.8461883605        5.7830109223        1.2216324725
  H        36.3777883233       32.1820906864        3.9625265555
  H        35.2574152437       30.3555455879        2.6827414291
  H        37.5229574014       27.4363448537        4.8846748841
  H        38.6233282265       29.2756879338        6.1731203300
  H        37.0301195776       29.4435249550        1.2676490881
  H        25.7299969110        8.6004239030        4.6351064156
  H        36.4524346207       32.2362690577       12.1102634719
  H        35.3423292123       30.4149415885       13.4022972435
  H        37.5319090448       27.4849504576       11.1373815209
  H        38.6163924188       29.3179974321        9.8326165737
  H        37.0477205171       29.4628047812       14.8193639777
  H        46.1096714980       26.5877496188       11.3856090612
  H        44.6682877745       35.1160887854        7.8139584758
  H        24.4725790628        3.0339634057       12.0626892793
  H        25.6386473716        4.8618233483       13.2929986575
  H        23.2456566868        7.7719303770       11.2194725725
  H        22.0921971773        5.9322401216        9.9872701693
  H        23.8581985232        5.7849800993       14.7736797738
  H        44.9535934959       34.3903149133        9.6951524206
  H        44.9012792985       34.2068517439        6.4904255263
  H        40.6661401365       33.2096649983       10.8532723886
  H        23.1514600236        1.9581795958        8.0036183163
  H        25.8296907204       19.6401268051        3.8879763500
  H        23.6604832722       19.6867429979        2.6594097338
  H        22.3411726838       16.2412842871        4.8707852953
  H        24.5156811932       16.2090100415        6.0979408072
  H        23.7252017610       17.6577134953        1.2445551906
  H        35.1481237577       15.4676439609        3.9712972795
  H        37.2650427835       15.4308722170        2.6587829160
  H        38.6997088317       18.8127834794        4.8977961059
  H        36.5773957618       18.8293495922        6.2163281958
  H        37.2161088055       17.4094880041        1.2444526175
  H        20.3595049644       17.9868848385        4.6691501045
  H        35.0598954472       15.4237980471       12.2546331819
  H        37.2306260175       15.3583316479       13.4740249537
  H        38.6699376660       18.6338656362       11.0837518338
  H        36.5043166060       18.6656233609        9.8436928136
  H        37.2071465474       17.3694120963       14.7981214557
  H        35.1518616908       26.6749663602       11.3897149378
  H        28.5020289772       21.0789589353        7.9035021330
  H        25.7748822183       19.6086169860       12.1945857719
  H        23.5895165714       19.6706133246       13.4016597052
  H        22.2841102665       16.2094280888       11.2064840680
  H        24.4668497864       16.1739282763        9.9867931210
  H        23.7033466513       17.6446526381       14.7985010680
  H        28.9851121144       21.7278969538        9.7563152281
  H        29.1802122857       21.7311162647        6.5767353584
  H        32.0895520201       18.5215659940       11.0368350288
  H        27.3955389712       19.0640891666        8.0772672584
  H        14.8488964755       19.6503177789       12.1387966731
  H        17.0112090403       19.6988577024       13.3816649643
  H        18.3047750756       16.1915302940       11.2550605459
  H        16.1385079196       16.1586066846       10.0114748782
  H        16.9225366800       17.7044317623       14.8482963130
  H        46.0713662439       15.4249552607       12.0517123849
  H        43.9370870994       15.3435665656       13.3360590917
  H        42.5008553921       18.7552217646       11.1450299066
  H        44.6371889779       18.8130338499        9.8515035531
  H        43.9898093773       17.3105140904       14.7752879679
  H        20.2918124520       17.9319252300       11.4217557667
  H        46.0516172212       15.4132199465        3.9959290866
  H        43.9295017074       15.3621179893        2.6890868676
  H        42.5267987691       18.8084290886        4.8473915765
  H        44.6557203687       18.8457082666        6.1546720394
  H        43.9972843362       17.3243490468        1.2239495499
  H        46.1995162418       26.6826117581        4.6234153029
  H        52.7413089061       21.0627197124        8.1946638642
  H        14.8786556408       19.6771105086        3.8986920321
  H        17.0791502633       19.7537299802        2.7190193576
  H        18.3389933833       16.2369206148        4.8496082219
  H        16.1405419017       16.1840763592        6.0390837829
  H        16.9435707839       17.7200593997        1.2956252649
  H        52.3230043510       21.6734081728        6.2940748257
  H        52.0137858376       21.7025271735        9.4957025317
  H        49.0682279006       18.6081117176        5.2037274189
  H        13.2475934008       19.0161498645        7.9773666785
  H        29.9844700130       12.5820252660       12.3347014070
  H        28.9575732021       10.6122124869       13.4722410623
  H        25.3719837869       11.1394317609       11.1551114991
  H        26.4180935115       13.0901784672       10.0054728277
  H        27.2016229740       11.6818910488       14.8000024715
  H        31.0202229060       22.7379989091       12.0417204106
  H        32.0307057644       24.6176115759       13.3346498661
  H        35.6948672696       24.1489934430       11.1301128687
  H        34.6625134679       22.2804457830        9.8272724438
  H        33.7106721353       23.5576941410       14.7517034956
  H        25.8323100839        8.5839347826       11.3884451804
  H        30.9432415658       22.7136587650        3.9348261101
  H        31.9754226333       24.5664237820        2.6237782740
  H        35.6184415908       24.1106479552        4.8657435006
  H        34.5704564371       22.2576636360        6.1760224919
  H        33.6838300656       23.5443224361        1.2026600467
  H        40.6125577104       17.1120532716        4.6335991442
  H        32.5158217828       14.1446259414        8.1549532523
  H        29.8827369824       12.5596965405        3.8761114997
  H        28.8675057999       10.6393548061        2.6486511376
  H        25.2185929804       11.1593603779        4.8661650402
  H        26.2589218645       13.0593246208        6.1107348299
  H        27.1597449645       11.6962157654        1.2450851134
  H        33.2985481037       14.2638290314        6.3807145185
  H        33.4028696734       14.3009759973        9.5542377229
  H        32.0876359931       18.5084589569        5.1468050280
  H        30.1824870405       14.1491872681        8.0666482872
  H        16.1183798351        2.9633043480       12.1294044729
  H        14.9531680637        4.8202100952       13.3222300314
  H        17.3658638716        7.6860465392       11.2099115603
  H        18.5148015315        5.8187515902       10.0101173104
  H        16.7532915344        5.7393557333       14.7714768392
  H        44.8279429763       32.1404442456       11.9773832946
  H        45.9373116044       30.3416224482       13.3067413793
  H        43.6832093161       27.3782646090       11.1520753560
  H        42.6003965866       29.1900893199        9.8094937330
  H        44.2305915220       29.4368262762       14.7689976130
  H        14.8511045533        8.5463762263       11.3633281056
  H        44.8997134447       32.2341358525        3.9314766517
  H        46.0246039103       30.4130989548        2.6520591710
  H        43.7643398077       27.4841377745        4.8460940023
  H        42.6465078942       29.3178468867        6.1251057723
  H        44.2686678173       29.4705318442        1.2182519066
  H        35.0823468455       26.6127500802        4.6289903398
  H        36.6052160999       35.1341276857        8.1806599002
  H        16.1441382273        3.0131050362        3.9043303692
  H        14.9746135180        4.8563584001        2.6885301018
  H        17.3964820462        7.7474156200        4.7553085311
  H        18.5434854501        5.8936461488        5.9830716388
  H        16.7646893311        5.7553940185        1.2191682395
  H        36.2789056285       34.4825677081        6.2729984296
  H        36.3808125654       34.2093026604        9.4997379500
  H        40.5807321386       33.2033380305        5.1534286489
  H        17.4718800217        1.9478386905        7.9743945192
  H        29.0490303738       19.3456463423       12.5859569752
  H        29.5560985832       19.6094164353        3.5701484989
  H        31.6456453925       15.8136111728        3.4090860094
  H        27.8780917072       17.9892314271       14.7634400339
  H        29.5832769202       15.5271904060       14.3557209085
  H        31.1946937327       19.9597791135        1.4620205755
  H        32.7065287165       17.7568558074        1.2034127680
  H        28.5414123637       17.6106061693        2.1152972813
  H        31.9815733103       18.7373984246       14.5951616386
  H        18.8533061640        0.8691489225       12.3351986158
  H        40.5279407783       35.2292333798        3.9519613753
  H        42.3248979177       34.4197755293        3.5903867863
  H        22.0879508829        0.6919351998       12.3521149276
  H        11.5971234713       18.7124136994       12.3822043396
  H        52.2653915923       18.4315074022        3.6778561524
  H        49.2556572997       16.4767112576        3.5844073666
  H        10.1502034462       15.7983270351       12.2926712332
  H        50.8506375524       17.6924773681        3.9541810127
  H        10.0460345198       17.3948687909       12.0518823656
  H        20.2144508041        0.0024054137       12.0421315335
  H        39.1835313176       36.1244652692        3.6864095980
 Ni        30.9444464424       17.9633507356        2.8287708374
 Ni        31.1544429134       16.6709200378       -0.3267107536
 Ni        29.5902280469       18.8854894664        0.0822165398
 Ni        30.2669381291       17.6237279227       13.3240951699
  O        10.6499299947       14.3651652103        5.4858737387
  O        12.6131784474       14.6575410809        6.5839257312
  O        49.1474354853       16.8458693216        7.9899095086
  O        50.3502403949       20.9356885836        5.6480513555
  O        48.3485259402       20.5931846122        6.6660239929
  O        11.0515238659       17.0537390294        6.5007796416
  O        50.3209823163       20.8816507146       10.4068460241
  O        48.3466951801       20.5866306955        9.3271358508
  O        49.5436290209       18.2483491679       10.0681661644
  O        12.3590011548       18.6246168614        7.9997284838
  O        48.6931169653       14.1487648969        6.7512481906
  O         8.2097399726       14.2107623405        9.3227267250
  O        10.7352372376       14.5067756359       10.6643019895
  O        12.5717859973       14.5828369648        9.3285294020
  O        22.8450072300        2.0437608684        5.4867424501
  O        21.6071233234        3.5935212987        6.5882400820
  O        42.0583424898       34.1379295167        7.9792728100
  O        37.9817288100       33.1369501457        5.5721726138
  O        39.2182481192       31.5760006513        6.6666187681
  O        20.3087522053        1.0406432775        6.5027012497
  O        38.0244500165       33.1853064497       10.4153823755
  O        39.2193214073       31.5838653233        9.3262891963
  O        40.6524820148       33.7698760064       10.0603186424
  O        18.2562878363        1.3762563352        7.9969126454
  O        44.6221212198       35.1006544923        6.7587966132
  O        24.2053956829        0.0001017193        9.3208117244
  O        22.7544842020        2.0593331476       10.5854357190
  O        21.6276711718        3.5998473830        9.3491776321
  O        27.4968612350       18.7537857936        5.4980361040
  O        26.7632059720       16.9356752163        6.6526121516
  O        30.6489734570       19.3477984110        8.0753916488
  O        33.5836988705       16.2804618512        5.6644818825
  O        34.2700769119       18.1682056698        6.7406079230
  O        29.5736851254       17.0602061516        6.5763496501
  O        33.4226931123       16.2840988344       10.5749362785
  O        34.2166202352       18.0896883177        9.4187449073
  O        31.6081990486       18.2460852186       10.2374723937
  O        30.2945716570       15.1137634908        8.0639354599
  O        28.5534740914       21.0334797912        6.8440751514
  O        28.5156155978       20.9526549092        9.4047000912
  O        27.4596421703       18.6773097034       10.6610230743
  O        26.6939400098       16.9292119522        9.4139621340
  O        13.1486989740       18.6930040460       10.5873992770
  O        13.9195746418       16.9163742416        9.4053043444
  O        50.5957303229       19.3500123557        8.0205700703
  O        47.6793937437       16.3278954473       10.4181479725
  O        46.9485627818       18.1754750003        9.3263415337
  O        11.0695193015       17.0155515477        9.4895723095
  O        47.6742725118       16.3364448631        5.6515003250
  O        46.9247461432       18.2357709214        6.6628386274
  O        49.5683677324       18.3176243411        5.9824260844
  O        10.3186532791       15.1003432395        7.9971688001
  O        52.6707546268       21.0278609487        9.2418009129
  O        12.1468006632       20.8911492782        6.6733267396
  O        13.1080539617       18.6137053401        5.3256791099
  O        13.9573594240       16.9871978369        6.6652683021
  O        29.9977011072       14.5829149408       10.7445613178
  O        28.0927093106       14.6574437522        9.4963361389
  O        32.0695269486       16.8436493252        8.0513071995
  O        30.9690474851       20.9480162753       10.4058464615
  O        32.9493939150       20.5839986368        9.3369775892
  O        29.5609314211       17.0735130774        9.5709394321
  O        30.8718439080       20.9413037473        5.6624848471
  O        32.8757152280       20.5838544991        6.6692770252
  O        31.6815622175       18.2528804068        5.9954567632
  O        28.2856885863       18.6756352092        8.0770045183
  O        32.4875980662       14.2072907127        9.2389783112
  O        32.3960801835       14.2215365762        6.7406768284
  O        29.8769681167       14.5080927495        5.4113625431
  O        28.0404416975       14.5878996588        6.7466720399
  O        17.8893982810        1.9667435955       10.6627113848
  O        18.9566024389        3.5272185552        9.4079500434
  O        39.1686341053       34.1388184548        7.9972355206
  O        43.2801988531       33.0590929561       10.3317231389
  O        42.0345417497       31.5065168152        9.2416594697
  O        20.3181265236        1.0372516540        9.4798689586
  O        43.2760459353       33.1827130634        5.5749365919
  O        42.0052839264       31.5841568687        6.5829829471
  O        40.5790214378       33.7752533289        5.9361006732
  O        22.3677741809        1.3856473024        7.9983309564
  O        36.6728911660       35.0998282038        9.2332973933
  O        16.4458376260        0.0643296902        6.6682650949
  O        17.9366266452        2.0434553996        5.3265329370
  O        18.9195781126        3.5930761515        6.6661821188
  O        29.8221977638       18.8312999536        4.0969619832
  O        29.8099213517       18.9939355184       12.0750565281
  O        31.2698527689       16.4839033327        4.0080576614
  O        31.9779475324       17.1433853489        1.4078158243
  O        28.4333429777       17.4421682326        1.1537228237
  O        30.4336831887       15.9489660381       14.1390251291
  O        32.0285734030       17.8048517550       14.3116193474
  O        30.4197923049       19.4131896382        1.6751677540
  O        28.6384207925       18.5384325069       14.4961754559
  O        39.4568196788       35.2438995336        4.0020438095
  O        19.1412968109        0.0046735280       11.9905194931
  O        41.9697159400       35.1730542390        4.0873435025
  O        21.6914262187       -0.0692019654       11.8960449800
  O        51.3653051780       18.6143772887        4.0054948911
  O        10.7511420180       18.7470601931       11.9049584049
  O        50.0800220567       16.4127532531        4.0918103714
  O         9.5243306290       16.4831888826       11.9911396373
 Zr         9.2970746092       16.0528308004        6.1823950432
 Zr        49.8364389800       16.0071518228        9.7467282207
 Zr        22.0731810557        0.0305998280        6.1891932171
 Zr        42.4612258353       35.1544724956        9.8016263965
 Zr        29.5981328130       19.0819874694        6.2738081341
 Zr        29.5610410037       19.1768648004        9.9118645391
 Zr        11.0383736306       19.0520207862        9.8279124542
 Zr        11.0442747638       19.1547009421        6.2511486522
 Zr        31.3366956508       16.0842142288        9.7623181187
 Zr        31.3570607470       16.0196721158        6.1843320591
 Zr        18.6014042920       -0.0009639404        9.7631314071
 Zr        18.5068603460       -0.0069661471        6.2139933048
 Zr        12.3029073673       16.3236787755        7.9903560486
 Zr        48.6159317891       18.8327160554        8.0107194740
 Zr        20.3172897658        2.4754549192        7.9920244522
 Zr        40.6439908521       32.6875084728        7.9782778366
 Zr        28.3266011249       16.3470968507        8.0738118503
 Zr        32.6100279175       18.8411885259        8.0428609500
  H        29.0961789027       16.7166356869        0.9614517333
  H        30.3446095408       19.8698849292       -0.6574469200
  H        30.3543387541       15.7429784465        0.4967061656
