     568
 i =      119, E =     -4744.3353628422
  C        11.8596994213       14.0530598107        5.7415616382
  C        12.4568837543       12.8900055750        5.0235492541
  C        11.7052085073       12.1715483681        4.0814824764
  C        12.2814742309       11.1093535655        3.3890663306
  C        13.6218993928       10.7391507853        3.6170602503
  C        14.3550019777       11.4422718125        4.5909288035
  C        13.7822581299       12.5072377655        5.2825708401
  C        14.2613328006        9.6485544831        2.8434865465
  C        14.2565403907        9.6565466275        1.4217691934
  C        13.7435133699       10.7587924180        0.6679449437
  C        49.1257124843       21.2320167482        5.8793140945
  C        48.5484908201       22.3999281979        5.1524752014
  C        49.2980913469       23.0665002138        4.1706009038
  C        48.7311786684       24.1055595489        3.4373004976
  C        47.4010043262       24.5080681532        3.6666331675
  C        46.6705522410       23.8600703815        4.6810950766
  C        47.2330143867       22.8152279244        5.4105825354
  C        46.7708259961       25.5857840581        2.8692669883
  C        46.7596516836       25.5561617780        1.4474687162
  C        47.2593150367       24.4410086186        0.7038694641
  C        14.8603573096        8.5701925957        0.7084093019
  C        14.8920179631        8.5964850191        3.5200356897
  C        49.1125903095       21.2025670059       10.1444553161
  C        48.5271155947       22.3640998734       10.8718350888
  C        49.2661588805       23.0250439358       11.8647147180
  C        48.6896180835       24.0595237117       12.5962108874
  C        47.3591394890       24.4560830990       12.3580222822
  C        46.6388733143       23.8109371762       11.3345535943
  C        47.2126576793       22.7750992931       10.6027987075
  C        46.7204652825       25.5309951513       13.1490654573
  C        46.7319798068       25.5272317557       14.5707835295
  C        47.2471644172       24.4278604781       15.3271045201
  C        40.6159459213       17.1256152567       15.2796677819
  C        40.6169015253       17.1323450706       12.4707007966
  C        11.8831176817       14.0866938496       10.2854361679
  C        12.4723634980       12.9108005196       10.9896434658
  C        11.7149301059       12.1778570742       11.9160298854
  C        12.2814651979       11.0953510163       12.5844218994
  C        13.6201397649       10.7212731848       12.3522881426
  C        14.3579845528       11.4365386945       11.3911517724
  C        13.7926148879       12.5177604293       10.7184818412
  C        14.2537127932        9.6244446872       13.1226411899
  C        14.2525436981        9.6443515940       14.5444980858
  C        13.7428825583       10.7533203285       15.2916841426
  C        22.5073680820        3.2447829428        5.7468343726
  C        23.2103583964        4.3495743430        5.0341416683
  C        24.2039577030        4.0696476335        4.0841929314
  C        24.8237663609        5.1084775947        3.3940628204
  C        24.4658494023        6.4503373246        3.6328402867
  C        23.4973317963        6.7217315113        4.6167059457
  C        22.8733704585        5.6848799229        5.3057135620
  C        25.0726305958        7.5579415677        2.8584742489
  C        25.0541355607        7.5540301152        1.4368558028
  C        24.3583001683        6.5549094156        0.6851310284
  C        38.3064024895       31.9230995313        5.8147995985
  C        37.5759922881       30.8241401772        5.1097056638
  C        36.6185009203       31.1249063513        4.1277511408
  C        35.9905063758       30.1046909133        3.4174603810
  C        36.3020568770       28.7522784919        3.6626590370
  C        37.2307981710       28.4586428738        4.6797569340
  C        37.8625559003       29.4787776184        5.3906310974
  C        35.6862246834       27.6636981677        2.8634230814
  C        35.7287092143       27.6768399039        1.4406088695
  C        36.4531787073       28.6695617358        0.7079214407
  C        25.6796790888        8.6267740542        0.7225637740
  C        25.6659032705        8.6319943102        3.5344088561
  C        38.3286885309       31.9614990860       10.1540188604
  C        37.6077598361       30.8848133644       10.8916656151
  C        36.6790144945       31.1873101687       11.8989781487
  C        36.0703049709       30.1639672355       12.6229278266
  C        36.3760827291       28.8130655383       12.3626336390
  C        37.2829372359       28.5207059176       11.3257554148
  C        37.8936323523       29.5404413677       10.6030744824
  C        35.7666029221       27.7103072520       13.1401120525
  C        35.7693975783       27.7010572872       14.5621786290
  C        36.4696855403       28.6830137024       15.3311457380
  C        46.1340520118       26.6198730423       15.2809860819
  C        46.0865227331       26.5794322541       12.4730765092
  C        22.4625576571        3.2566741883       10.2534647776
  C        23.1599703281        4.3692361845       10.9661853921
  C        24.1734742088        4.0909362438       11.8968954339
  C        24.8027631359        5.1269274646       12.5827836111
  C        24.4374495442        6.4700228661       12.3618205149
  C        23.4478451987        6.7416529855       11.3986320535
  C        22.8150037351        5.7061664897       10.7118456932
  C        25.0618312906        7.5712400818       13.1367027411
  C        25.0484805195        7.5608480540       14.5590157769
  C        24.3539249286        6.5593591054       15.3086045042
  C        26.6774974324       17.8815241123        5.6605241153
  C        25.3705405272       17.9773924426        4.9446247917
  C        25.1167955135       18.9739241704        3.9898056350
  C        23.8819100009       19.0276682446        3.3430851290
  C        22.8696259208       18.0861548627        3.6236530211
  C        23.1221573432       17.1150827120        4.6103905807
  C        24.3529031365       17.0594408485        5.2583126577
  C        21.5871604420       18.0727577094        2.8758815401
  C        21.5832216803       18.0271555461        1.4543898830
  C        22.7874936862       17.8845663274        0.6949972095
  C        34.4224689800       17.2185495660        5.8404270018
  C        35.7234630347       17.1486266016        5.1165588723
  C        35.9213359865       16.1918184029        4.1087174814
  C        37.1110562373       16.1717081560        3.3859539844
  C        38.1309246101       17.1084722503        3.6478573197
  C        37.9358299050       18.0400769077        4.6849651644
  C        36.7457879912       18.0642768164        5.4077000912
  C        39.3841919592       17.1252045703        2.8605695261
  C        39.3722321988       17.1491336309        1.4390522031
  C        38.1620367926       17.2846084987        0.6881205614
  C        20.3349083341       18.0294350115        0.7501823087
  C        20.3641652176       18.0681327551        3.5634949210
  C        34.4351481885       17.2441267848       10.1453229421
  C        35.7312779183       17.1670094734       10.8791857196
  C        35.9250870520       16.2090407856       11.8859733873
  C        37.1138825469       16.1835787757       12.6105011178
  C        38.1368988166       17.1171044192       12.3518215897
  C        37.9463511315       18.0511455325       11.3159531635
  C        36.7577433203       18.0801156822       10.5919753302
  C        39.3883899366       17.1317837226       13.1417259662
  C        39.3745496974       17.1528851259       14.5631165007
  C        38.1629097020       17.2864838187       15.3117546768
  C        35.1243795341       26.6271996832       15.2598477882
  C        35.1795107797       26.6416730970       12.4503854467
  C        26.5838916231       17.7995754382       10.3204785053
  C        25.2690978180       17.8658538919       11.0244537807
  C        25.0097381000       18.8846151019       11.9536788128
  C        23.7882675400       18.9300449577       12.6207341416
  C        22.7975186092       17.9552964618       12.3855092240
  C        23.0523833666       16.9609466917       11.4234681746
  C        24.2729399408       16.9152042357       10.7523229455
  C        21.5321567228       17.9523838857       13.1574387331
  C        21.5551527397       17.9636303549       14.5788174761
  C        22.7738170025       17.8533792748       15.3198339636
  C        14.0468446853       17.8314929553       10.2861562172
  C        15.3525537485       17.8966982048       11.0070181819
  C        15.6093140922       18.9123314821       11.9411760531
  C        16.8195439579       18.9437694683       12.6307587770
  C        17.8064241438       17.9622877641       12.4084271376
  C        17.5542998502       16.9702686045       11.4420340253
  C        16.3436161165       16.9347594753       10.7532411421
  C        19.0759491027       17.9579664233       13.1756979683
  C        19.0744420255       17.9751612585       14.5982844495
  C        17.8688670826       17.8822593494       15.3629322064
  C        46.8009473077       17.2140888604       10.1503952267
  C        45.5012278042       17.1421500000       10.8779626934
  C        45.2878869136       16.1614835796       11.8587832009
  C        44.0998749680       16.1407618050       12.5845326146
  C        43.0956980481       17.1005848767       12.3511830242
  C        43.3034322616       18.0562965943       11.3384961289
  C        44.4923520179       18.0811726822       10.6139696132
  C        41.8444120802       17.1191383682       13.1427056551
  C        41.8585446306       17.1308569144       14.5645286585
  C        43.0717536818       17.2310327071       15.3156608650
  C        20.3211020433       17.9995768904       15.3052328824
  C        20.2994264489       17.9308862207       12.4923518148
  C        46.8024489315       17.2060122017        5.8483911562
  C        45.4984611784       17.1232772581        5.1289587089
  C        45.2787670687       16.1388665944        4.1526751248
  C        44.0908804265       16.1209787444        3.4260890098
  C        43.0904599136       17.0856046739        3.6562785854
  C        43.3021444064       18.0420444401        4.6675763488
  C        44.4915031542       18.0654989714        5.3911395165
  C        41.8398754739       17.1085758772        2.8634057501
  C        41.8564100119       17.1244677482        1.4415751370
  C        43.0707576716       17.2271728410        0.6925249978
  C        46.1518608009       26.6362367566        0.7257722353
  C        46.1612377063       26.6551275604        3.5354194181
  C        14.0504977562       17.8379807007        5.7090617395
  C        15.3736667334       17.9329956438        5.0196121660
  C        15.6305501800       18.9577438241        4.0954348656
  C        16.8575166712       19.0205436901        3.4375295176
  C        17.8601217178       18.0586708091        3.6761019737
  C        17.6098242316       17.0625427900        4.6384979058
  C        16.3841522052       16.9990603936        5.3002537205
  C        19.1277895724       18.0593834971        2.9018127235
  C        19.1011960753       18.0270438511        1.4791602165
  C        17.8818773872       17.9045780371        0.7395158335
  C        28.8060989451       14.0891880710       10.3179691852
  C        28.1855558372       12.9313504851       11.0247010084
  C        28.9038739634       12.2083677820       11.9890771645
  C        28.3044307223       11.1418384728       12.6546063889
  C        26.9712584317       10.7732201186       12.3818149976
  C        26.2723442781       11.4813283587       11.3871485547
  C        26.8696377649       12.5480391910       10.7195917274
  C        26.3051159546        9.6903184360       13.1432360318
  C        26.2904269982        9.7098365919       14.5646579330
  C        26.7934656734       10.8187213416       15.3162957859
  C        32.1824663820       21.2385824651       10.0681246575
  C        32.7810598669       22.3976259660       10.7973520270
  C        32.0259847422       23.0795320980       11.7645006801
  C        32.5927545170       24.1152026908       12.5013423155
  C        33.9324736131       24.4976148123       12.2954100983
  C        34.6723896068       23.8321048154       11.2994535952
  C        34.1070447328       22.7918016826       10.5630280574
  C        34.5558618916       25.5725985552       13.1030538646
  C        34.5314008520       25.5476600435       14.5251726985
  C        34.0035847220       24.4393236620       15.2593167839
  C        25.6802628330        8.6278362797       15.2779111533
  C        25.6740602016        8.6381869212       12.4655075577
  C        32.0294589450       21.1364116160        5.7210796313
  C        32.5917570054       22.3167113359        5.0031132693
  C        31.8613148776       23.0057896247        4.0219002882
  C        32.4444013609       24.0637648526        3.3249428087
  C        33.7699979578       24.4649546395        3.5898843365
  C        34.4769146419       23.7950490745        4.6067541335
  C        33.9010950937       22.7338714219        5.2979643059
  C        34.4301567660       25.5497853432        2.8247787182
  C        34.4661925264       25.5371638327        1.4029600963
  C        33.9698361909       24.4360807015        0.6358989535
  C        40.6147944980       17.1230278916        0.7245092510
  C        40.6114925904       17.1229191386        3.5340374872
  C        28.7138224214       14.0930053581        5.7464326824
  C        28.1038866369       12.9346025745        5.0333381366
  C        28.8470156039       12.2123708001        4.0863668527
  C        28.2645842003       11.1505019422        3.3999533206
  C        26.9247561191       10.7832857098        3.6363262805
  C        26.2005878381       11.4879866316        4.6158944519
  C        26.7805223263       12.5520010979        5.3039416468
  C        26.2824689819        9.6945416926        2.8620626553
  C        26.2808663215        9.7116838870        1.4404673000
  C        26.7879845055       10.8203104407        0.6922128205
  C        18.1353441593        3.1807161620       10.3169688779
  C        17.4060352624        4.2779106212       11.0156081563
  C        16.3900926451        3.9996128849       11.9429086656
  C        15.7423153256        5.0396388805       12.6062851226
  C        16.0943990684        6.3833453774       12.3667425842
  C        17.0840387067        6.6528101358       11.4032285728
  C        17.7331757753        5.6154301261       10.7382767594
  C        15.4700837178        7.4910520666       13.1298102329
  C        15.4853908653        7.4902744593       14.5515257354
  C        16.1870045643        6.4966274263       15.3045962110
  C        42.9449249869       31.8594791689       10.0722947097
  C        43.6449850472       30.7715539022       10.8164064000
  C        44.5906382420       31.0926506835       11.8024487062
  C        45.1962541341       30.0869906657       12.5500681201
  C        44.8696885714       28.7339483228       12.3352349894
  C        43.9437008979       28.4198212875       11.3220875110
  C        43.3350013065       29.4250895159       10.5740759640
  C        45.4872537786       27.6545359469       13.1383887478
  C        45.4914785578       27.6801147549       14.5600981736
  C        44.8047028544       28.6883134747       15.3068062280
  C        14.8565084221        8.5627601643       15.2639695515
  C        14.8748387904        8.5628840033       12.4512865126
  C        42.9464020772       31.9614987955        5.8085281431
  C        43.6914639805       30.8852177477        5.0952258967
  C        44.6559956993       31.1908931217        4.1227543849
  C        45.2772934302       30.1711631873        3.4050243439
  C        44.9534013524       28.8208661896        3.6427555620
  C        44.0201070315       28.5234443313        4.6538014512
  C        43.3920469082       29.5403371338        5.3659806521
  C        45.5620934752       27.7232740314        2.8574416982
  C        45.5322176707       27.7165588195        1.4361279466
  C        44.8261152712       28.7069663668        0.6832033919
  C        35.0979540390       26.6191011632        0.7053553650
  C        35.0535134916       26.5978380532        3.5161947486
  C        18.1484402108        3.2465090163        5.7065280029
  C        17.4297524925        4.3431087727        4.9971241819
  C        16.4148597375        4.0518534443        4.0731907732
  C        15.7666410963        5.0825216066        3.3977766863
  C        16.1211595038        6.4277725095        3.6207143171
  C        17.1123106155        6.7111122150        4.5782272591
  C        17.7598592440        5.6821895496        5.2580622538
  C        15.4907213459        7.5235489876        2.8483429336
  C        15.4965371611        7.5069938616        1.4272040304
  C        16.1933041973        6.5053719379        0.6804113245
  H        10.6732507375       12.4660414406        3.9040881352
  H        11.6952234512       10.5512271313        2.6622277234
  H        15.3919451156       11.1674392899        4.7728081179
  H        14.3517496297       13.0702391054        6.0181649610
  H        13.3767006752       11.6309861727        1.2012795481
  H        50.3205096061       22.7458836787        3.9852720191
  H        49.3174561120       24.6201674559        2.6791167905
  H        45.6414088702       24.1615558387        4.8650460145
  H        46.6623195470       22.2910841375        6.1736590965
  H        47.6276080236       23.5744642269        1.2454496001
  H        14.8724414152        8.5876750932        4.6083437393
  H        50.2862701728       22.7024105798       12.0596463781
  H        49.2679494584       24.5750671761       13.3597061443
  H        45.6093780638       24.1078880246       11.1455132262
  H        46.6519109804       22.2526707040        9.8313655166
  H        47.6058668203       23.5507598055       14.7961142483
  H        40.6173575460       17.0898262707       11.3831726932
  H        48.6836621387       14.0970095410        7.8006962138
  H        10.6815661695       12.4671503010       12.0936918015
  H        11.6897020602       10.5251507362       13.2972972088
  H        15.3933079875       11.1584271792       11.2049463350
  H        14.3649012749       13.0868893833        9.9897173722
  H        13.3761749744       11.6220365067       14.7531291518
  H        47.9306731855       14.2191169625        9.7125484136
  H        47.7795183943       14.3579916928        6.4865054990
  H        49.0793204431       18.5509897053       10.8635964103
  H        10.4175311495       14.1337821954        8.0003924785
  H        24.4699125042        3.0314525047        3.8981506124
  H        25.5961112253        4.8901945742        2.6596955424
  H        23.2122732227        7.7543063800        4.8073747356
  H        22.1052094173        5.8861721627        6.0483936574
  H        23.7965742014        5.7951846651        1.2208380984
  H        36.3894460449       32.1680702153        3.9232610462
  H        35.2487670382       30.3479665026        2.6597841580
  H        37.4833918496       27.4194222672        4.8805503067
  H        38.6027387551       29.2535152049        6.1550681987
  H        37.0251981764       29.4113009706        1.2576760703
  H        25.6946601551        8.6134430197        4.6223998358
  H        36.4549772659       32.2301593647       12.1119293929
  H        35.3444707158       30.4035519669       13.3968715855
  H        37.5311850646       27.4819114073       11.1183462124
  H        38.6162180569       29.3201359227        9.8211530025
  H        37.0548223715       29.4352985252       14.8099317164
  H        46.1080153702       26.5868947574       11.3850409817
  H        44.6684606679       35.1163602831        7.8141040424
  H        24.4580788419        3.0546509101       12.0647609119
  H        25.5913563075        4.9050615677       13.2986731193
  H        23.1545867417        7.7740125461       11.2191128988
  H        22.0350180000        5.9124734487        9.9826340090
  H        23.7886199435        5.8031474397       14.7717979848
  H        44.9542208799       34.3907139286        9.6953875421
  H        44.9029202932       34.2072679906        6.4906524551
  H        40.6645256705       33.2077134389       10.8504824938
  H        23.1494314336        1.9586249152        8.0030326162
  H        25.8959120817       19.6995206386        3.7664542372
  H        23.6894855766       19.8057497473        2.6074519669
  H        22.3543460212       16.3779308401        4.8361196244
  H        24.5561881306       16.2965725585        6.0055404750
  H        23.7283817032       17.7658725649        1.2239626261
  H        35.1249318820       15.4800457102        3.9010177880
  H        37.2656381160       15.4232460777        2.6117736355
  H        38.7155779501       18.7698542084        4.8929690665
  H        36.5781630821       18.7995483468        6.1912028698
  H        37.2276330993       17.4213121371        1.2246694747
  H        20.3746592898       18.1167935822        4.6510541246
  H        35.1260137798       15.5021135791       12.0971880175
  H        37.2629990932       15.4345583379       13.3850927729
  H        38.7281268296       18.7795674295       11.1109048045
  H        36.5928290141       18.8184310319        9.8110087359
  H        37.2292786909       17.4233087270       14.7736475303
  H        35.1612866843       26.6695046329       11.3625370073
  H        28.5081052572       21.0911211147        7.9958976142
  H        25.7778185303       19.6333093009       12.1348023319
  H        23.5873010538       19.7250727551       13.3356103686
  H        22.2971577325       16.2004557958       11.2356568086
  H        24.4839430398       16.1356063795       10.0242292949
  H        23.7035968635       17.7111872869       14.7773207937
  H        29.0316194783       21.7007836230        9.7541158580
  H        29.0857256227       21.7812388910        6.5974793510
  H        32.0617481591       18.5331441080       10.9331094615
  H        27.3506460813       19.0913484499        8.0646768806
  H        14.8498294390       19.6721743911       12.1110927868
  H        17.0158897023       19.7375167191       13.3483355765
  H        18.3062324230       16.2046243195       11.2622026746
  H        16.1369007218       16.1563751686       10.0225530790
  H        16.9257931057       17.7586523537       14.8384488804
  H        46.0712216015       15.4313043056       12.0481000665
  H        43.9362375361       15.3753117045       13.3399263545
  H        42.5351928993       18.8040221170       11.1526210944
  H        44.6707956486       18.8355306676        9.8513051918
  H        44.0101763606       17.3426983291       14.7801268899
  H        20.2915056271       17.9449820062       11.4039020414
  H        46.0548137162       15.3999716165        3.9668103278
  H        43.9244290142       15.3541114207        2.6727209099
  H        42.5364406161       18.7926200101        4.8525014231
  H        44.6728858484       18.8220372905        6.1509479416
  H        44.0085654673       17.3359021693        1.2295828220
  H        46.1983111736       26.6817526297        4.6228567927
  H        52.7408471082       21.0624275916        8.1943806064
  H        14.8576564987       19.7000321142        3.9086371821
  H        17.0512144238       19.8193815819        2.7247959294
  H        18.3730864409       16.3117955988        4.8330163513
  H        16.1802094882       16.2158705680        6.0266551197
  H        16.9487226698       17.7977713603        1.2844569074
  H        52.3213262268       21.6728605245        6.2947220008
  H        52.0126007211       21.7016173584        9.4954381895
  H        49.0709635955       18.6068531347        5.2018813857
  H        13.2476510173       19.0170273127        7.9770413695
  H        29.9302380870       12.4970592209       12.2039175836
  H        28.8664130788       10.5795983316       13.3972290096
  H        25.2414323888       11.2096026309       11.1696566768
  H        26.3263025027       13.1129453896        9.9660446460
  H        27.1593279127       11.6896074671       14.7807666880
  H        30.9973681076       22.7717864996       11.9354053431
  H        31.9994020343       24.6420561789       13.2454593549
  H        35.7100374122       24.1152562680       11.1347791540
  H        34.6857513272       22.2546491454        9.8150519661
  H        33.6477639907       23.5712988127       14.7115255423
  H        25.7063946183        8.6223304232       11.3774930431
  H        30.8399248613       22.6971584144        3.8093137857
  H        31.8724514287       24.5943436230        2.5667338229
  H        35.5012140738       24.0925183145        4.8216344959
  H        34.4563852946       22.1957171451        6.0621918508
  H        33.5876564510       23.5645377344        1.1592629135
  H        40.6099723696       17.0781471825        4.6215047962
  H        32.5206907578       14.1587013775        8.1558171710
  H        29.8812582854       12.4958710877        3.9046227450
  H        28.8459618699       10.5894042987        2.6715121254
  H        25.1646640596       11.2147609747        4.8059393939
  H        26.2173887378       13.1141003615        6.0451571802
  H        27.1491061182       11.6923973138        1.2294913429
  H        33.2862705389       14.1771870373        6.3388342231
  H        33.4092060286       14.3690262657        9.5320731549
  H        32.0815970250       18.5145410779        5.0327986458
  H        30.2378968594       14.1897766447        8.0033497267
  H        16.1179004672        2.9631351588       12.1292474086
  H        14.9527092769        4.8203128480       13.3217893704
  H        17.3667136429        7.6856518002       11.2102868948
  H        18.5154252843        5.8180999328       10.0106630194
  H        16.7536320049        5.7393837486       14.7710336933
  H        44.8271717902       32.1396729346       11.9766502362
  H        45.9362638658       30.3406794134       13.3058969871
  H        43.6808883006       27.3777913775       11.1519034663
  H        42.5983818103       29.1898329308        9.8093904538
  H        44.2295579186       29.4362786388       14.7685511025
  H        14.8510825304        8.5462038977       11.3630651121
  H        44.8997253346       32.2335093188        3.9311687331
  H        46.0241238755       30.4122946080        2.6516791023
  H        43.7631285566       27.4837602953        4.8455903039
  H        42.6457511372       29.3175930028        6.1246335051
  H        44.2679075409       29.4700607180        1.2178017454
  H        35.0011188001       26.6099268830        4.6034278246
  H        36.6048511304       35.1305040216        8.1815186420
  H        16.1439216862        3.0122939371        3.9031520475
  H        14.9745232794        4.8557086603        2.6874540587
  H        17.3958189879        7.7465604681        4.7552248352
  H        18.5425924817        5.8926725632        5.9829679754
  H        16.7648824295        5.7551732995        1.2187509215
  H        36.2720630539       34.4856355829        6.2644230021
  H        36.3811148549       34.2093863384        9.5019694778
  H        40.5783145354       33.2041654533        5.1511171164
  H        17.4717745352        1.9462332355        7.9740445622
  H        29.2849919750       19.4900217569       12.5888942089
  H        30.6187427950       15.5429828698        3.7252854283
  H        31.1248949951       15.5557248311       12.3663611576
  H        28.2462429504       18.0262859337       14.5663925414
  H        29.3296056031       15.6100432962       14.5284324468
  H        31.0638832316       19.5372683081        2.1076830726
  H        33.3902857273       16.1073508628        1.0957788984
  H        32.5633475650       18.3725728729       15.4650176131
  H        18.8532132815        0.8692283157       12.3343081997
  H        40.5302492477       35.2291394065        3.9511148196
  H        42.3250119802       34.4198041675        3.5894720663
  H        22.0873851197        0.6925319336       12.3508562505
  H        11.5972179471       18.7118719960       12.3816821355
  H        52.2643158057       18.4334243473        3.6742057758
  H        49.2525288555       16.4801795604        3.5939204692
  H        10.1495467896       15.7985203808       12.2932342990
  H        50.8506258865       17.6905784646        3.9528428852
  H        10.0453050215       17.3946554268       12.0516479022
  H        20.2141783958        0.0020038317       12.0416446977
  H        39.1869736184       36.1263903116        3.6855512065
 Ni        31.4109385618       17.1055831772        2.0883502968
 Ni        31.4124436574       16.1291141962       -0.4178601046
 Ni        30.0965385354       18.5500392671        0.0808740809
 Ni        30.0170180373       17.3770576830       13.0746840535
  O        10.6506821622       14.3646295477        5.4855183535
  O        12.6135239272       14.6574827727        6.5838010940
  O        49.1473315709       16.8421379291        7.9864171793
  O        50.3493438707       20.9359206143        5.6484137279
  O        48.3473446037       20.5913059372        6.6655012726
  O        11.0529408515       17.0525566416        6.5003771182
  O        50.3207426722       20.8814105152       10.4065906279
  O        48.3465595449       20.5859545085        9.3263753430
  O        49.5437653157       18.2478017202       10.0667810171
  O        12.3595544660       18.6244113586        7.9994166976
  O        48.6934982481       14.1488779748        6.7515673112
  O         8.2095619007       14.2103713214        9.3222865539
  O        10.7354061774       14.5067816491       10.6642576924
  O        12.5718911470       14.5829071503        9.3283842408
  O        22.8445330966        2.0433810362        5.4866452104
  O        21.6056807679        3.5924744658        6.5888015567
  O        42.0572353253       34.1368547797        7.9784275361
  O        37.9916192494       33.1274941897        5.5040209403
  O        39.2080795260       31.5791070412        6.6562907605
  O        20.3078195019        1.0387365830        6.5013488618
  O        38.0242963350       33.1846306824       10.4149800459
  O        39.2199186446       31.5842822239        9.3246810464
  O        40.6518638643       33.7691819025       10.0584132067
  O        18.2560469108        1.3744528066        7.9959008760
  O        44.6222038036       35.1005939649        6.7588720117
  O        24.2053479492       -0.0000146920        9.3207775867
  O        22.7531361377        2.0591743126       10.5837110863
  O        21.6233716561        3.5950600086        9.3402585026
  O        27.6320384252       18.6894704406        5.3350066733
  O        26.7405468934       17.0020037547        6.5822621893
  O        30.6528458857       19.4096198884        8.0104536118
  O        33.5461141230       16.3345112985        5.5757673107
  O        34.2681708853       18.1883897514        6.6628223873
  O        29.5694669525       17.0729982326        6.5669140031
  O        33.5558153583       16.3477012599       10.3954583702
  O        34.2997945348       18.2280948529        9.3329001617
  O        31.6499594960       18.3158293490       10.0781943684
  O        30.3216366926       15.1575464067        7.9990074493
  O        28.5484362984       21.0333216940        6.9102279495
  O        28.5135531088       20.9532877068        9.4084266809
  O        27.4944830045       18.6186130579       10.6646201352
  O        26.6910505016       16.9163505274        9.3964941415
  O        13.1477865533       18.6936098749       10.5865322887
  O        13.9194387449       16.9163372987        9.4050499760
  O        50.5960298065       19.3491827970        8.0190573409
  O        47.6820294033       16.3275205869       10.4170081708
  O        46.9519951188       18.1765374332        9.3233529128
  O        11.0699000900       17.0153356319        9.4890866337
  O        47.6905293445       16.3197848826        5.5755514090
  O        46.9554166633       18.1747350943        6.6629946573
  O        49.5708869947       18.3168980016        5.9808603241
  O        10.3189421462       15.0995170652        7.9968531771
  O        52.6706649273       21.0278782470        9.2416790457
  O        12.1465954125       20.8909940157        6.6731184762
  O        13.1084463336       18.6143315321        5.3254396205
  O        13.9610211513       16.9887749038        6.6619676893
  O        29.9924250803       14.4351745695       10.6410748069
  O        28.0878278964       14.6494487595        9.4140106619
  O        32.1020493738       16.9019433147        7.9864313596
  O        30.9678058613       20.9528648691       10.3278947007
  O        32.9456479868       20.6035829570        9.2511948197
  O        29.5639711967       17.0795032301        9.4944780433
  O        30.7982573146       20.8046001149        5.4866883333
  O        32.8188294864       20.5242803045        6.5077706771
  O        31.5926705611       18.2481372396        5.8285723557
  O        28.2307348018       18.6809538403        8.0660726536
  O        32.4922723033       14.2154512538        9.2413788584
  O        32.4032196588       14.2211459044        6.7411750237
  O        29.8990085026       14.4408358141        5.4105953049
  O        28.0061588350       14.6500286122        6.6587584056
  O        17.8891607197        1.9662356147       10.6626088811
  O        18.9561151000        3.5268207922        9.4077900419
  O        39.1670103524       34.1377848947        7.9942264776
  O        43.2799144762       33.0587634116       10.3314671485
  O        42.0335498263       31.5066454887        9.2410170430
  O        20.3175650662        1.0364093654        9.4798147284
  O        43.2760397384       33.1824015844        5.5748823866
  O        42.0049776962       31.5840252411        6.5826392304
  O        40.5794179021       33.7752956294        5.9343784157
  O        22.3670958019        1.3842737338        7.9977457250
  O        36.6726100991       35.0994610711        9.2332215060
  O        16.4463728538        0.0591757884        6.6664783742
  O        17.9364572947        2.0427284377        5.3262907268
  O        18.9188255471        3.5929403137        6.6657444751
  O        29.8391589001       18.9620880276       11.9835839033
  O        31.2223246569       16.2632403960        3.9898025441
  O        31.2145121116       16.4139212272       11.9047370286
  O        32.4403682394       15.8965122566        1.0868438255
  O        30.2043490444       15.8280482529       14.1622343176
  O        31.7344990645       18.0254957455       15.0827323094
  O        30.5443577003       18.7572616150        1.8434389830
  O        29.1354659781       18.3932162201       14.4195878833
  O        39.4582728228       35.2450643954        4.0008265464
  O        19.1409213752        0.0044357176       11.9901832416
  O        41.9696818316       35.1726764517        4.0869370401
  O        21.6911877530       -0.0691980178       11.8954690819
  O        51.3651818161       18.6143288606        4.0052751411
  O        10.7511579581       18.7470908243       11.9046609323
  O        50.0843155602       16.4131079478        4.0887708499
  O         9.5238292991       16.4831486499       11.9909622912
 Zr         9.2993055015       16.0492405011        6.1773230057
 Zr        49.8371418655       16.0063919917        9.7453469788
 Zr        22.0738072958        0.0302499403        6.1890048510
 Zr        42.4611599104       35.1533318406        9.8009519060
 Zr        29.5951374005       19.0987882157        6.3562217170
 Zr        29.5658287846       19.1492500149        9.8789585057
 Zr        11.0375658296       19.0522302559        9.8275458199
 Zr        11.0452546536       19.1533193937        6.2495971104
 Zr        31.3446425535       16.0960956363        9.7928874075
 Zr        31.3731635228       16.0137636714        6.1518532357
 Zr        18.6019424216       -0.0010788215        9.7621797276
 Zr        18.5068375602       -0.0101777789        6.2080780720
 Zr        12.3031323455       16.3239296870        7.9894944965
 Zr        48.6180394131       18.8281018613        8.0070159395
 Zr        20.3150929321        2.4733878708        7.9896657101
 Zr        40.6417631777       32.6865249475        7.9741725477
 Zr        28.3209547032       16.3378064793        8.0368842043
 Zr        32.6429391286       18.8243637153        7.9912062561
