     568
 i =      289, E =     -4744.3802232690
  C        11.8600033544       14.0537853153        5.7408428510
  C        12.4561780803       12.8887044354        5.0254897073
  C        11.7049079215       12.1712420828        4.0824013486
  C        12.2811880588       11.1089123222        3.3902301755
  C        13.6222005810       10.7400366036        3.6169120212
  C        14.3551739438       11.4428981095        4.5910620568
  C        13.7825447477       12.5080452478        5.2824472708
  C        14.2616471576        9.6489399868        2.8440654814
  C        14.2564236698        9.6567514744        1.4223892018
  C        13.7436859567       10.7589583570        0.6683040036
  C        49.1260189251       21.2314916661        5.8788625301
  C        48.5503441509       22.4009210134        5.1530019575
  C        49.3000336933       23.0680756591        4.1714877131
  C        48.7333418877       24.1074642882        3.4383933935
  C        47.4027961543       24.5090589948        3.6670272251
  C        46.6718052163       23.8603541835        4.6806005106
  C        47.2342920306       22.8152585092        5.4096608203
  C        46.7723703306       25.5865827386        2.8696695789
  C        46.7613386442       25.5568504440        1.4478865025
  C        47.2613829139       24.4418341096        0.7043747365
  C        14.8608294502        8.5705894854        0.7092426115
  C        14.8924472463        8.5968939235        3.5205679129
  C        49.1131541907       21.2020351855       10.1454677158
  C        48.5289127343       22.3658774867       10.8695405606
  C        49.2679518661       23.0252533797       11.8632116480
  C        48.6914489200       24.0587025889       12.5961443524
  C        47.3610449038       24.4557246051       12.3580446709
  C        46.6404959526       23.8114530114       11.3341102483
  C        47.2142005794       22.7764644806       10.6011697218
  C        46.7228763800       25.5312421164       13.1490133815
  C        46.7338361560       25.5272855288       14.5707673742
  C        47.2488220953       24.4282061394       15.3276016294
  C        40.6277600708       17.1361289136       15.2984104503
  C        40.6395655975       17.1925539930       12.4895771338
  C        11.8852934350       14.0880910655       10.2867437351
  C        12.4728857109       12.9106031973       10.9896208962
  C        11.7156364975       12.1776538857       11.9160599119
  C        12.2823834575       11.0951672360       12.5842603038
  C        13.6209674132       10.7208004524       12.3524676003
  C        14.3586513013       11.4370165207       11.3919507781
  C        13.7935915039       12.5183700574       10.7191648407
  C        14.2541260829        9.6240346726       13.1232132814
  C        14.2531387495        9.6443721097       14.5450490493
  C        13.7426724085       10.7531090801       15.2920519659
  C        22.5060276661        3.2458682897        5.7455420497
  C        23.2081393687        4.3514661928        5.0325666240
  C        24.2002075701        4.0730380113        4.0805623609
  C        24.8190910606        5.1130641493        3.3911673263
  C        24.4608655181        6.4548568476        3.6305569434
  C        23.4926668107        6.7242803764        4.6154174587
  C        22.8693792364        5.6864926037        5.3039294649
  C        25.0671048121        7.5630766155        2.8559179741
  C        25.0490830696        7.5586014812        1.4341039030
  C        24.3544629486        6.5582822474        0.6826351616
  C        38.3039880572       31.9262663211        5.8183827825
  C        37.5616891918       30.8325977884        5.1203327785
  C        36.5964833831       31.1431326563        4.1492851064
  C        35.9604005806       30.1296059654        3.4372067533
  C        36.2716290576       28.7756040464        3.6719901295
  C        37.2090057297       28.4725269048        4.6782649088
  C        37.8492281736       29.4858203937        5.3907329948
  C        35.6515506014       27.6909411045        2.8715161093
  C        35.6973025228       27.7024226747        1.4490127328
  C        36.4196136829       28.6964289643        0.7158740865
  C        25.6742727330        8.6314805169        0.7195208089
  C        25.6598702283        8.6379461692        3.5316403867
  C        38.3278748088       31.9613248682       10.1540969397
  C        37.6066954745       30.8850793726       10.8928898180
  C        36.6719623936       31.1889958079       11.8942705652
  C        36.0616897603       30.1670330179       12.6190075904
  C        36.3745374687       28.8158688350       12.3682545886
  C        37.2849200858       28.5216657488       11.3348033321
  C        37.8964678948       29.5401592776       10.6107786632
  C        35.7622419678       27.7153420565       13.1475089150
  C        35.7560976571       27.7131091520       14.5699524339
  C        36.4443018942       28.7035860297       15.3390174185
  C        46.1356430411       26.6198535073       15.2809993076
  C        46.0879785555       26.5793110165       12.4732269333
  C        22.4632940085        3.2560956470       10.2532737563
  C        23.1635043170        4.3686832421       10.9629533788
  C        24.1757394947        4.0895719344       11.8948261004
  C        24.8055738907        5.1252041055       12.5807787948
  C        24.4411484461        6.4683568725       12.3591573407
  C        23.4533876752        6.7408965000       11.3943488729
  C        22.8199837453        5.7057540454       10.7077026549
  C        25.0640273098        7.5703655375       13.1339278400
  C        25.0475752180        7.5622340769       14.5561949857
  C        24.3518972776        6.5618025449       15.3060400257
  C        26.6816486617       17.8803012877        5.6623154570
  C        25.3740095838       17.9721008666        4.9504865993
  C        25.1237385344       18.9501631897        3.9764868783
  C        23.8890299142       18.9938955534        3.3293236510
  C        22.8751866323       18.0597794192        3.6286275353
  C        23.1239833948       17.1085624132        4.6356023911
  C        24.3555266458       17.0618159266        5.2815451934
  C        21.5931522226       18.0369525784        2.8816497044
  C        21.5861843334       17.9796762913        1.4604081245
  C        22.7882912805       17.8304341523        0.6987838709
  C        34.4284067463       17.1931842026        5.8503671284
  C        35.7347389806       17.1159589545        5.1385998991
  C        35.9332490078       16.1526784073        4.1373236406
  C        37.1190150572       16.1341889567        3.4089016897
  C        38.1343448867       17.0769258149        3.6627988771
  C        37.9409917343       18.0128808667        4.6963008550
  C        36.7534411477       18.0377731776        5.4225552761
  C        39.3857461424       17.0951902988        2.8745297482
  C        39.3771671438       17.1289517825        1.4535433995
  C        38.1681471343       17.2658002752        0.7011035740
  C        20.3367160662       17.9851800793        0.7584821379
  C        20.3714152823       18.0392058310        3.5716982494
  C        34.4713765981       17.2571356534       10.1368946830
  C        35.7691803898       17.2011685305       10.8709686788
  C        35.9740439347       16.2302578442       11.8634447653
  C        37.1564197292       16.2160455277       12.5970400396
  C        38.1624674355       17.1731138614       12.3611291792
  C        37.9614798922       18.1219513422       11.3409597933
  C        36.7773978488       18.1405756720       10.6078020681
  C        39.4097213127       17.1836538536       13.1565875507
  C        39.3891901306       17.1765836204       14.5779216337
  C        38.1743132501       17.2905957921       15.3246808848
  C        35.1102298439       26.6403830290       15.2693590690
  C        35.1832804322       26.6406560990       12.4604125905
  C        26.5809687492       17.8000444043       10.3214096098
  C        25.2632503299       17.8643237087       11.0225280592
  C        25.0000488729       18.8699777236       11.9653735262
  C        23.7789354138       18.9012314138       12.6348042809
  C        22.7903821952       17.9270648465       12.3873653612
  C        23.0475932631       16.9473520420       11.4111139408
  C        24.2677633523       16.9158165816       10.7384055416
  C        21.5269779736       17.9105499099       13.1629318379
  C        21.5524393109       17.9147748074       14.5845669416
  C        22.7717016662       17.7968824664       15.3235033340
  C        14.0451109806       17.8272300373       10.2892593921
  C        15.3488380320       17.8851792756       11.0139478307
  C        15.6076587526       18.8936091158       11.9552292671
  C        16.8168177593       18.9163048542       12.6472979645
  C        17.7996937889       17.9314079155       12.4219483287
  C        17.5442707373       16.9446142541       11.4511744290
  C        16.3347431190       16.9178304579       10.7603407690
  C        19.0701645264       17.9183913257       13.1876405833
  C        19.0715811745       17.9334391563       14.6100678974
  C        17.8671616857       17.8429534159       15.3768904453
  C        46.8046383042       17.2172084252       10.1539108568
  C        45.5118200319       17.1575913140       10.8931538539
  C        45.2918608321       16.1725278503       11.8678514031
  C        44.1077602368       16.1620413366       12.5998508189
  C        43.1153583920       17.1364983445       12.3776495508
  C        43.3297851407       18.0976937084       11.3719488852
  C        44.5140746986       18.1113374912       10.6406077453
  C        41.8637375277       17.1580820901       13.1664013436
  C        41.8729344582       17.1474565716       14.5877877315
  C        43.0845582704       17.2292210929       15.3436041558
  C        20.3201082566       17.9512393159       15.3137665275
  C        20.2922010870       17.8932213686       12.5012110043
  C        46.7987112700       17.2053110540        5.8591314128
  C        45.4915996035       17.1189008957        5.1487887846
  C        45.2740382025       16.1243361395        4.1836356150
  C        44.0871014414       16.0956760000        3.4577974362
  C        43.0852588036       17.0592587671        3.6813494962
  C        43.2917439560       18.0240290946        4.6855950306
  C        44.4809938092       18.0583063636        5.4089410422
  C        41.8387483291       17.0790034793        2.8848019795
  C        41.8611153544       17.1032806694        1.4637017496
  C        43.0786667835       17.2090653513        0.7203756606
  C        46.1538894966       26.6367968469        0.7257834040
  C        46.1627150708       26.6560123472        3.5355295518
  C        14.0507888698       17.8362496533        5.7088320903
  C        15.3753715216       17.9257941101        5.0214329668
  C        15.6396907284       18.9491589720        4.0979636420
  C        16.8694026011       19.0050145179        3.4444367606
  C        17.8665897408       18.0382182357        3.6853981379
  C        17.6079592380       17.0440763482        4.6473069901
  C        16.3803033613       16.9867434380        5.3056437338
  C        19.1344194709       18.0298746794        2.9117671938
  C        19.1045571182       17.9885909311        1.4895928342
  C        17.8831651561       17.8679610806        0.7532321097
  C        28.8036598685       14.0889662481       10.3184406481
  C        28.1858295862       12.9286107077       11.0208960104
  C        28.8993786984       12.2192872930       11.9985593589
  C        28.3005034097       11.1522474669       12.6632942218
  C        26.9739100127       10.7704521798       12.3766793673
  C        26.2810160139       11.4657007254       11.3685374669
  C        26.8777134810       12.5319380881       10.7001565579
  C        26.3064740096        9.6899482675       13.1397450348
  C        26.2859079204        9.7134008213       14.5612845962
  C        26.7828937898       10.8254451249       15.3124024647
  C        32.1849191940       21.2441037838       10.0636302554
  C        32.7843316434       22.4020485979       10.7973277333
  C        32.0316713354       23.0747271864       11.7735580765
  C        32.5989005176       24.1072815567       12.5150328890
  C        33.9358925947       24.4978132802       12.3053443626
  C        34.6729802783       23.8400603957       11.3019615837
  C        34.1076956800       22.8032858595       10.5599617318
  C        34.5574893866       25.5732570343       13.1142982331
  C        34.5254703451       25.5550414532       14.5365420959
  C        34.0001286240       24.4473538292       15.2732533470
  C        25.6759287523        8.6313812921       15.2748035573
  C        25.6787129756        8.6354898900       12.4624867687
  C        32.0270642660       21.1393057297        5.7237449648
  C        32.5807876257       22.3283857735        5.0129730904
  C        31.8529819801       22.9992169416        4.0172683523
  C        32.4275297689       24.0645812197        3.3243495637
  C        33.7430321500       24.4889272993        3.6039987413
  C        34.4454184265       23.8377246713        4.6365119128
  C        33.8778192400       22.7702444863        5.3254112033
  C        34.3991615160       25.5747569871        2.8362503071
  C        34.4435258968       25.5575026375        1.4143169803
  C        33.9578330093       24.4503270349        0.6494693809
  C        40.6220136100       17.1120596097        0.7426801464
  C        40.6097160998       17.0872591830        3.5524125703
  C        28.7144589557       14.0957073854        5.7459634785
  C        28.1021944291       12.9423429665        5.0260528958
  C        28.8449414217       12.2142921602        4.0834391154
  C        28.2598534486       11.1538338568        3.3967374974
  C        26.9186165699       10.7908017320        3.6314840742
  C        26.1936094804       11.5033279344        4.6048301276
  C        26.7761235666       12.5662070904        5.2925006084
  C        26.2754450671        9.7008692965        2.8587214591
  C        26.2728591732        9.7179003422        1.4372187677
  C        26.7766888665       10.8275450486        0.6883335709
  C        18.1345829847        3.1809556794       10.3159231568
  C        17.4069198021        4.2780702514       11.0164034227
  C        16.3904161230        3.9997913046       11.9430620400
  C        15.7430601502        5.0397689203       12.6068817949
  C        16.0951000243        6.3834457853       12.3672836226
  C        17.0845600928        6.6529310967       11.4035794953
  C        17.7333723985        5.6156065751       10.7381883746
  C        15.4707831565        7.4909207852       13.1306481426
  C        15.4858719777        7.4904538435       14.5523783962
  C        16.1878334763        6.4970408204       15.3054042487
  C        42.9445841395       31.8595172792       10.0731417135
  C        43.6455187769       30.7715983412       10.8167548922
  C        44.5907080342       31.0929182650       11.8032607762
  C        45.1970119447       30.0873691254       12.5505564913
  C        44.8720377158       28.7340464672       12.3349087634
  C        43.9455259889       28.4199136547       11.3222421080
  C        43.3360625369       29.4249739713       10.5745074781
  C        45.4894131439       27.6548643220       13.1385866127
  C        45.4931535429       27.6802682685       14.5603075782
  C        44.8061505098       28.6885614736       15.3067762185
  C        14.8567572880        8.5628120329       15.2648271009
  C        14.8756572695        8.5626861591       12.4519521428
  C        42.9464852799       31.9615389299        5.8088019708
  C        43.6913389015       30.8851622298        5.0953573220
  C        44.6555525259       31.1908620735        4.1225587423
  C        45.2778562225       30.1713586813        3.4053735873
  C        44.9543672255       28.8209755317        3.6429875281
  C        44.0210037534       28.5232996878        4.6538962273
  C        43.3919923581       29.5400852869        5.3654197775
  C        45.5631288320       27.7237462143        2.8573025027
  C        45.5335593043       27.7168371921        1.4359776994
  C        44.8273420125       28.7072461342        0.6831736586
  C        35.0740977096       26.6394401999        0.7150045822
  C        35.0171331675       26.6273102575        3.5257563591
  C        18.1479777783        3.2469768627        5.7075454150
  C        17.4303439606        4.3436552512        4.9972391161
  C        16.4146305994        4.0525914584        4.0741593910
  C        15.7666840959        5.0832819685        3.3985570311
  C        16.1217332049        6.4283533440        3.6217282076
  C        17.1136442099        6.7118514408        4.5784225261
  C        17.7607952787        5.6826673322        5.2582641433
  C        15.4917304184        7.5241640364        2.8490845106
  C        15.4971285253        7.5074368039        1.4279596469
  C        16.1937269013        6.5056394140        0.6812292501
  H        10.6725715305       12.4649582288        3.9059749909
  H        11.6950917664       10.5509441281        2.6631498781
  H        15.3925813409       11.1691239125        4.7718540387
  H        14.3519083990       13.0710765676        6.0180845986
  H        13.3763676366       11.6309579888        1.2016013006
  H        50.3228565542       22.7482751495        3.9868991133
  H        49.3199516597       24.6227802055        2.6809185136
  H        45.6423902591       24.1613877596        4.8638033839
  H        46.6632778725       22.2906263938        6.1721354057
  H        47.6297259981       23.5754200626        1.2461322904
  H        14.8728845708        8.5886215335        4.6088704539
  H        50.2880189963       22.7021115848       12.0574976248
  H        49.2698972966       24.5728182470       13.3604747719
  H        45.6109128638       24.1081170618       11.1453635060
  H        46.6536100961       22.2543466796        9.8293759532
  H        47.6078862065       23.5512074895       14.7967058221
  H        40.6433694609       17.1681346193       11.4015855267
  H        48.6850492677       14.0973086066        7.8006895407
  H        10.6821840709       12.4669166611       12.0930498242
  H        11.6900891678       10.5246620960       13.2963872722
  H        15.3938586123       11.1582746326       11.2060734499
  H        14.3668542694       13.0870357944        9.9908025173
  H        13.3761395905       11.6218448702       14.7533863594
  H        47.9307857507       14.2184018221        9.7119130246
  H        47.7794422255       14.3680064086        6.4911640937
  H        49.0806819240       18.5527453260       10.8635906063
  H        10.4163008084       14.1336136290        8.0011882181
  H        24.4668673139        3.0351788256        3.8935172884
  H        25.5908882032        4.8954512772        2.6560481626
  H        23.2066087818        7.7564004330        4.8071887284
  H        22.1015208417        5.8870663667        6.0471246030
  H        23.7925180448        5.7985288969        1.2180577746
  H        36.3682124063       32.1885293960        3.9559337627
  H        35.2129142054       30.3798603816        2.6875058508
  H        37.4607140446       27.4312507759        4.8687403538
  H        38.5953876523       29.2547105425        6.1475899072
  H        36.9830892794       29.4447984778        1.2655966458
  H        25.6890914395        8.6200417936        4.6196449533
  H        36.4440729361       32.2320554968       12.1020639157
  H        35.3312649023       30.4083162961       13.3880623707
  H        37.5376925269       27.4828880305       11.1328560588
  H        38.6228460017       29.3184811346        9.8327347908
  H        37.0285836021       29.4568212671       14.8181402253
  H        46.1104584167       26.5869194709       11.3852037288
  H        44.6684241719       35.1169474348        7.8140324818
  H        24.4601617242        3.0533614762       12.0634094060
  H        25.5936103460        4.9037960574       13.2974484409
  H        23.1609894258        7.7732870424       11.2135908834
  H        22.0412011985        5.9116365613        9.9771274979
  H        23.7879824865        5.8045798491       14.7691265644
  H        44.9546497970       34.3905942709        9.6951800299
  H        44.9030548808       34.2071133929        6.4902957049
  H        40.6657253808       33.2069084819       10.8495950668
  H        23.1492159729        1.9587739328        8.0025819416
  H        25.9038112152       19.6705119075        3.7402434442
  H        23.6977246735       19.7578899785        2.5789940995
  H        22.3548714416       16.3780171515        4.8770533546
  H        24.5582733912       16.3151865612        6.0451577850
  H        23.7298204977       17.7067615895        1.2254852960
  H        35.1391463922       15.4364369016        3.9379326561
  H        37.2729747009       15.3833745043        2.6368959648
  H        38.7196139012       18.7460928280        4.8964404004
  H        36.5854181391       18.7772778729        6.2020740913
  H        37.2309028200       17.3858288489        1.2368535172
  H        20.3833581697       18.0961207833        4.6588810522
  H        35.1876285672       15.5035671753       12.0538691449
  H        37.3155083019       15.4566582395       13.3595234855
  H        38.7313944896       18.8679818420       11.1548756433
  H        36.6033016624       18.8891184191        9.8383877303
  H        37.2418319436       17.4278900040       14.7847664199
  H        35.1707965402       26.6639125861       11.3724041455
  H        28.5088970452       21.0944637430        7.9964261129
  H        25.7642860305       19.6192576096       12.1596725414
  H        23.5757898748       19.6854183210       13.3609517424
  H        22.2948935310       16.1871459577       11.2121837568
  H        24.4798489193       16.1470628789        9.9993462127
  H        23.6998041222       17.6504264632       14.7791490382
  H        29.0153693241       21.7077223159        9.7632326154
  H        29.0763888065       21.7850419120        6.5924085443
  H        32.0905398650       18.5573092316       10.9175851208
  H        27.3509066936       19.0891770561        8.0597549673
  H        14.8517776142       19.6568686872       12.1262052961
  H        17.0153378785       19.7058881882       13.3688585699
  H        18.2928135633       16.1760111147       11.2697898670
  H        16.1259355816       16.1438491519       10.0256259294
  H        16.9222990092       17.7222727777       14.8549480789
  H        46.0671761079       15.4314958667       12.0477351042
  H        43.9373321867       15.3931026183       13.3501586017
  H        42.5704272124       18.8568890247       11.1965487601
  H        44.6992355008       18.8686275776        9.8825377162
  H        44.0254221575       17.3426011930       14.8126915177
  H        20.2808793481       17.9124035529       11.4128896330
  H        46.0554441431       15.3895661435        4.0057810898
  H        43.9234382341       15.3224779411        2.7105634772
  H        42.5208950425       18.7712007596        4.8636074629
  H        44.6580200506       18.8227516568        6.1621047256
  H        44.0150676039       17.3050466047        1.2622389825
  H        46.1997070323       26.6823676252        4.6229865686
  H        52.7418626293       21.0624070921        8.1943648657
  H        14.8712298180       19.6951100455        3.9075105723
  H        17.0700185000       19.8021292823        2.7317045638
  H        18.3667998328       16.2895596113        4.8444416060
  H        16.1698191645       16.2043901186        6.0310055149
  H        16.9513841205       17.7653764015        1.3012998941
  H        52.3219972848       21.6732228320        6.2946189115
  H        52.0110956061       21.7004059115        9.4941277803
  H        49.0704531786       18.6056288551        5.2014742794
  H        13.2483344571       19.0155403795        7.9775399294
  H        29.9182572198       12.5229872707       12.2278647534
  H        28.8585550106       10.5996750387       13.4159685329
  H        25.2552114165       11.1837771982       11.1403941794
  H        26.3388282398       13.0879993109        9.9369104952
  H        27.1459334955       11.6975523093       14.7768168253
  H        31.0052175937       22.7617177189       11.9488103886
  H        32.0064951846       24.6276282972       13.2645785476
  H        35.7087284517       24.1281696766       11.1339909779
  H        34.6853046741       22.2742807231        9.8053501253
  H        33.6516089392       23.5754704526       14.7271025645
  H        25.7159753658        8.6163967855       11.3746736131
  H        30.8426759693       22.6671603708        3.7878004119
  H        31.8564890738       24.5809342177        2.5557317480
  H        35.4613981727       24.1534893453        4.8643979509
  H        34.4311362241       22.2471168374        6.1014905338
  H        33.5770694508       23.5794262156        1.1747022138
  H        40.6048109168       17.0369499508        4.6395702903
  H        32.5199791755       14.1546421847        8.2366685756
  H        29.8811237140       12.4924619381        3.9050192396
  H        28.8418391645       10.5887494886        2.6719158693
  H        25.1563675499       11.2339891198        4.7929355500
  H        26.2120578110       13.1329219327        6.0294944850
  H        27.1339750755       11.7013272617        1.2253946716
  H        33.2900067149       14.1777525233        6.4142404032
  H        33.4079110026       14.3861003055        9.6052181958
  H        32.0931571133       18.5388574332        5.0493294905
  H        30.2389407256       14.1911213413        8.0066273666
  H        16.1184451622        2.9632740908       12.1294291762
  H        14.9534850600        4.8204147902       13.3223867910
  H        17.3669727604        7.6858451023       11.2105814712
  H        18.5156126068        5.8185671098       10.0106500637
  H        16.7543705201        5.7395354810       14.7721025257
  H        44.8270855403       32.1399101194       11.9779015600
  H        45.9372878682       30.3410297157       13.3061616120
  H        43.6836126868       27.3777814900       11.1512441136
  H        42.5997268466       29.1896118653        9.8095899257
  H        44.2308135826       29.4363488760       14.7684739132
  H        14.8517484223        8.5459691921       11.3637258085
  H        44.8992348256       32.2335072204        3.9310709271
  H        46.0249993675       30.4125374051        2.6523463994
  H        43.7646262225       27.4834677197        4.8457554667
  H        42.6458456545       29.3169252067        6.1241050162
  H        44.2689552743       29.4703525080        1.2175931753
  H        34.9626473050       26.6439357640        4.6128198374
  H        36.6053581149       35.1316013372        8.1810617552
  H        16.1435521593        3.0130194764        3.9043859183
  H        14.9742693176        4.8566710335        2.6885003827
  H        17.3977355158        7.7472082264        4.7551510556
  H        18.5441244593        5.8929158461        5.9825982739
  H        16.7655239708        5.7557545913        1.2197891478
  H        36.2745251338       34.4824347650        6.2673879383
  H        36.3810857842       34.2090988769        9.5007704520
  H        40.5785677996       33.2030652798        5.1526772874
  H        17.4719626040        1.9468802646        7.9744141764
  H        29.1366865241       19.5768350606       12.5145565528
  H        30.6533945919       15.5074338149        3.7354051634
  H        30.9496116981       15.5737453681       12.3456203367
  H        28.1249338734       17.9837221433       14.8948931888
  H        29.2005777175       15.5190452950       14.6113304546
  H        31.7120984469       19.6784832031        1.7007722987
  H        33.3287082738       16.4154930144        1.0028853348
  H        32.3683777442       18.4879418608       14.3160857025
  H        18.8540460333        0.8688073843       12.3347096026
  H        40.5293918442       35.2296672102        3.9509656780
  H        42.3243284154       34.4193914407        3.5896968282
  H        22.0873091391        0.6930151404       12.3502267819
  H        11.5972032855       18.7137544367       12.3817779186
  H        52.2650069709       18.4317083920        3.6756389308
  H        49.2547091269       16.4768996301        3.5893907221
  H        10.1513241060       15.7986106259       12.2906919997
  H        50.8509618948       17.6914434733        3.9523698213
  H        10.0455572013       17.3944782678       12.0516048418
  H        20.2150443131        0.0019030278       12.0414426798
  H        39.1865870563       36.1265068380        3.6857882422
 Ni        31.2860102345       17.2721112697        2.1682641166
 Ni        31.3674680919       16.2491241593       -0.5782669359
 Ni        30.2241253602       18.5342334791        0.0848519460
 Ni        30.0956199675       17.5274113453       13.2381721754
  O        10.6506424767       14.3642190758        5.4850737428
  O        12.6124607039       14.6570059424        6.5849993201
  O        49.1462129212       16.8417452245        7.9874260567
  O        50.3498270868       20.9360528387        5.6482135333
  O        48.3482225669       20.5913608687        6.6662201426
  O        11.0539097904       17.0529251698        6.4999713519
  O        50.3217531624       20.8809629506       10.4059266772
  O        48.3469944088       20.5871733567        9.3262200324
  O        49.5444000603       18.2495291547       10.0664180184
  O        12.3593874941       18.6248843063        8.0000545833
  O        48.6929923059       14.1500635003        6.7513089947
  O         8.2100052903       14.2092083800        9.3224238113
  O        10.7350397620       14.5030995017       10.6638734905
  O        12.5729056991       14.5811543242        9.3271866682
  O        22.8451866502        2.0446112520        5.4867868937
  O        21.6058814199        3.5920768188        6.5897665339
  O        42.0562937760       34.1373638843        7.9785206186
  O        37.9913941168       33.1308855545        5.5077420662
  O        39.2070110296       31.5791704757        6.6567504015
  O        20.3079251617        1.0392427850        6.5014892785
  O        38.0239441726       33.1847261601       10.4143661337
  O        39.2198788742       31.5850277901        9.3252708561
  O        40.6529325604       33.7697799014       10.0585080779
  O        18.2565208905        1.3754842181        7.9955559036
  O        44.6229199913       35.1004911578        6.7589763929
  O        24.2051928223       -0.0004970658        9.3206855893
  O        22.7525665026        2.0585121525       10.5841217002
  O        21.6236104107        3.5941785767        9.3404358710
  O        27.6348644702       18.6883453007        5.3335681842
  O        26.7430615354       17.0011650423        6.5838612492
  O        30.6549863441       19.4121643250        8.0121060306
  O        33.5566781193       16.3016560188        5.5832007852
  O        34.2670196862       18.1757196075        6.6584792858
  O        29.5708746990       17.0724438568        6.5666016757
  O        33.6151946071       16.3450856793       10.3911616995
  O        34.3062825431       18.2401580544        9.3292284415
  O        31.6544908402       18.3174723893       10.0826858366
  O        30.3212370115       15.1590513705        8.0057394379
  O        28.5472664415       21.0335759714        6.9100537334
  O        28.5115675745       20.9558179397        9.4064822831
  O        27.4924752025       18.6181660819       10.6686173560
  O        26.6894632603       16.9178912162        9.3966935943
  O        13.1490538577       18.6937762302       10.5862486852
  O        13.9182722113       16.9165755320        9.4035009442
  O        50.5967213656       19.3496147432        8.0189770484
  O        47.6832497187       16.3274114367       10.4169581158
  O        46.9532812021       18.1779546325        9.3247875788
  O        11.0698882220       17.0148312933        9.4883314685
  O        47.6877948266       16.3231025781        5.5757049063
  O        46.9571332407       18.1789818082        6.6646148315
  O        49.5702101932       18.3147540902        5.9802220133
  O        10.3191095665       15.0994519659        7.9991386376
  O        52.6727353433       21.0295514098        9.2418368887
  O        12.1468936709       20.8912174155        6.6731916038
  O        13.1106267652       18.6142945903        5.3234335830
  O        13.9614515705       16.9880730890        6.6625639825
  O        29.9885690262       14.4363567212       10.6457758880
  O        28.0871013933       14.6501230753        9.4140113287
  O        32.1042181643       16.9035118171        7.9920397807
  O        30.9721775615       20.9595929774       10.3237267445
  O        32.9506110864       20.6046225307        9.2510509259
  O        29.5650412871       17.0827330088        9.4989003597
  O        30.7981430020       20.8045399270        5.4900850016
  O        32.8212198682       20.5246533709        6.5055232539
  O        31.5930206890       18.2458063985        5.8282278177
  O        28.2322103378       18.6812509505        8.0672142070
  O        32.4927009997       14.2151100938        9.3169108904
  O        32.4038568836       14.2231948699        6.8100742045
  O        29.9029581025       14.4401178996        5.4127794993
  O        28.0072235258       14.6495068216        6.6589567749
  O        17.8895163568        1.9667650035       10.6634535645
  O        18.9568232802        3.5271604276        9.4081116492
  O        39.1675283576       34.1381108658        7.9940896018
  O        43.2800312412       33.0590160792       10.3305777587
  O        42.0342682841       31.5061257984        9.2408684738
  O        20.3179442025        1.0355790298        9.4796968224
  O        43.2761852450       33.1822028218        5.5739653329
  O        42.0056144369       31.5841773597        6.5835353188
  O        40.5812250207       33.7756249193        5.9348820905
  O        22.3658037830        1.3858816346        7.9960217247
  O        36.6726360957       35.0994248132        9.2331096807
  O        16.4462292945        0.0590264929        6.6668781502
  O        17.9368272666        2.0433255786        5.3262030609
  O        18.9198645050        3.5911386069        6.6662550021
  O        29.8197884605       19.1219001427       11.9876995194
  O        31.2160292948       16.2670549042        3.9796386063
  O        31.2287176779       16.4030233248       11.9019540528
  O        32.3855449568       16.1869360443        1.0051947558
  O        30.0414496931       15.6785957864       14.1541058397
  O        31.5235418336       18.0885146092       14.5765229168
  O        30.9225746243       19.1156801901        1.7534290672
  O        28.9314473161       18.4663708578       14.6543330415
  O        39.4579494805       35.2452483393        4.0012107820
  O        19.1415045256        0.0042583196       11.9898111383
  O        41.9695110195       35.1723526065        4.0874082328
  O        21.6910683778       -0.0688979339       11.8951768303
  O        51.3658569962       18.6144993348        4.0058898379
  O        10.7510376500       18.7467013431       11.9048237664
  O        50.0841721233       16.4137752690        4.0886212126
  O         9.5246551605       16.4829382850       11.9896484997
 Zr         9.2999532591       16.0499565117        6.1776738776
 Zr        49.8370487186       16.0064063507        9.7459254217
 Zr        22.0743895796        0.0305507316        6.1888643229
 Zr        42.4618266857       35.1539350358        9.8002679479
 Zr        29.5978417018       19.1031353770        6.3592595883
 Zr        29.5666949845       19.1607224260        9.8841653954
 Zr        11.0387005934       19.0518357598        9.8277396591
 Zr        11.0453468401       19.1536777663        6.2494112581
 Zr        31.3480787123       16.1003709134        9.8237092866
 Zr        31.3788112754       16.0087693496        6.1795949877
 Zr        18.6015572038       -0.0007861282        9.7621316517
 Zr        18.5070353456       -0.0095681257        6.2081294299
 Zr        12.3034017630       16.3235696775        7.9893263128
 Zr        48.6191703462       18.8284152729        8.0072355784
 Zr        20.3151900073        2.4732699805        7.9905961236
 Zr        40.6419514372       32.6865002583        7.9744967809
 Zr        28.3253381454       16.3416604208        8.0418192607
 Zr        32.6443945122       18.8258154157        7.9881338897
