     569
 i =       99, E =     -4729.4551003210
  C        11.8583998435       14.0537136622        5.7416110859
  C        12.4558855914       12.8904725462        5.0232008707
  C        11.7043164811       12.1721790060        4.0810249456
  C        12.2805144408       11.1098893869        3.3885872058
  C        13.6207675430       10.7393520487        3.6168682133
  C        14.3537335780       11.4422208790        4.5909856714
  C        13.7810019688       12.5072590777        5.2825586951
  C        14.2602340854        9.6486203277        2.8435101948
  C        14.2558925620        9.6565909949        1.4217928101
  C        13.7429178286       10.7587619454        0.6678208465
  C        49.1263842688       21.2334165087        5.8798867413
  C        48.5494707223       22.4011703735        5.1526054483
  C        49.2996999466       23.0688567433        4.1720165404
  C        48.7327362034       24.1079080970        3.4387408879
  C        47.4019799602       24.5090641572        3.6669205055
  C        46.6707100744       23.8596810872        4.6798573743
  C        47.2332015620       22.8148187741        5.4092653325
  C        46.7718749097       25.5868255497        2.8696348389
  C        46.7611757099       25.5573871532        1.4478723585
  C        47.2610941116       24.4422564997        0.7044161511
  C        14.8596678528        8.5701066267        0.7085902419
  C        14.8907198802        8.5965116331        3.5201842326
  C        49.1129141808       21.2034057225       10.1453450044
  C        48.5274926744       22.3646664200       10.8726377474
  C        49.2669313388       23.0258355056       11.8650819797
  C        48.6905614120       24.0603856481       12.5965040448
  C        47.3599332313       24.4566624546       12.3586587114
  C        46.6392329376       23.8111921253       11.3357192629
  C        47.2128069513       22.7752335455       10.6040102132
  C        46.7215703800       25.5317280311       13.1496059691
  C        46.7335159553       25.5282474676       14.5712994411
  C        47.2488658882       24.4289675418       15.3276533290
  C        40.6206415348       17.1079601128       15.3102241730
  C        40.6323222105       17.1400289959       12.4984297311
  C        11.8825200752       14.0865053420       10.2853291051
  C        12.4715918786       12.9101454722       10.9894404846
  C        11.7140768145       12.1775756136       11.9159922540
  C        12.2803122608       11.0949429813       12.5844992417
  C        13.6187765271       10.7203497086       12.3521724325
  C        14.3566392985       11.4351369994       11.3907083963
  C        13.7915570229       12.5165107489       10.7180158773
  C        14.2522893416        9.6235915040       13.1226875557
  C        14.2517038692        9.6439280273       14.5445442892
  C        13.7421628184       10.7530678097       15.2915613976
  C        22.5114034184        3.2423520332        5.7524567721
  C        23.2288053854        4.3442048075        5.0488704145
  C        24.2259162315        4.0557150842        4.1054921064
  C        24.8593703056        5.0892993758        3.4205300968
  C        24.5109367300        6.4332303315        3.6594062385
  C        23.5402244718        6.7134323451        4.6382901666
  C        22.9023113413        5.6813666321        5.3217911789
  C        25.1264414249        7.5346914852        2.8844727796
  C        25.1038260743        7.5295248285        1.4630008204
  C        24.3980083780        6.5342420621        0.7151320377
  C        38.2973429941       31.9275239539        5.8520121578
  C        37.5565232239       30.8395048467        5.1527326458
  C        36.5956910711       31.1446761996        4.1756733876
  C        35.9684548669       30.1257146498        3.4645385816
  C        36.2850961594       28.7739095579        3.7064285526
  C        37.2138056615       28.4769254425        4.7226081538
  C        37.8456181570       29.4946351882        5.4329699929
  C        35.6801557617       27.6844112959        2.9074477146
  C        35.7135190031       27.7036515414        1.4827111111
  C        36.4210099015       28.7048668508        0.7502618844
  C        25.7342105793        8.5973617914        0.7460106009
  C        25.7281394571        8.6046991900        3.5576886856
  C        38.3289826802       31.9602558229       10.1594636322
  C        37.6111079661       30.8885729500       10.9047356241
  C        36.6861681119       31.1965544259       11.9152094572
  C        36.0789481810       30.1787921155       12.6478835050
  C        36.3789719546       28.8241493525       12.3952653402
  C        37.2821540908       28.5269516402       11.3548340140
  C        37.8923832435       29.5410237908       10.6239206788
  C        35.7702009336       27.7251417844       13.1778933910
  C        35.7595145285       27.7242970640       14.6031953641
  C        36.4415954673       28.7161017912       15.3714813418
  C        46.1355350184       26.6209164160       15.2813948801
  C        46.0874476901       26.5799510045       12.4735157573
  C        22.4628708480        3.2550901433       10.2562030591
  C        23.1641490401        4.3623785781       10.9767315789
  C        24.1738722312        4.0716894355       11.9078446921
  C        24.8096313738        5.0984256590       12.6019567581
  C        24.4555709415        6.4453443808       12.3874621690
  C        23.4685621330        6.7296667437       11.4249298810
  C        22.8285665382        5.7029397754       10.7309345761
  C        25.0933730013        7.5394199962       13.1623032900
  C        25.0873217961        7.5314938678       14.5850127049
  C        24.3883533605        6.5362263948       15.3384481287
  C        26.5582048465       17.8889584969        5.7910894171
  C        25.2707775824       17.9614642378        5.0880772217
  C        25.0374644773       18.9355773254        4.0957985845
  C        23.8357216633       18.9549308789        3.3978369438
  C        22.8179859665       18.0128959694        3.6667359374
  C        23.0398956499       17.0752832740        4.6970451691
  C        24.2446739760       17.0411139486        5.3888425815
  C        21.5582528547       17.9886773050        2.8929148918
  C        21.5631014484       17.9699139742        1.4685836895
  C        22.7698160520       17.8463517649        0.7116556920
  C        34.4518401355       17.1950750172        5.9189334842
  C        35.7323639713       17.1457971012        5.1825162197
  C        35.9247323773       16.2005690571        4.1582274232
  C        37.1015554746       16.1941757980        3.4191037361
  C        38.1290395918       17.1244070262        3.6830190339
  C        37.9418210228       18.0427131504        4.7372409765
  C        36.7594630796       18.0622735642        5.4697059698
  C        39.3765723701       17.1394238862        2.8932639946
  C        39.3685805607       17.1407296989        1.4679235208
  C        38.1633436359       17.2688170256        0.7125390605
  C        20.3184148775       17.9802293626        0.7569749006
  C        20.3293417420       17.9721572122        3.5700562801
  C        34.4539996530       17.1916371784       10.1818519353
  C        35.7464475285       17.1224120541       10.9057821780
  C        35.9532715631       16.1634187713       11.9104925281
  C        37.1413187316       16.1530378722       12.6341014066
  C        38.1546113647       17.0980035144       12.3745116987
  C        37.9526796833       18.0291408771       11.3367851565
  C        36.7625404345       18.0478990427       10.6165779851
  C        39.4025265639       17.1236245681       13.1659009849
  C        39.3813626984       17.1344271063       14.5896241785
  C        38.1687716061       17.2641149967       15.3338760228
  C        35.1230771807       26.6450366746       15.3039541997
  C        35.1961531885       26.6469706244       12.4924691657
  C        26.5496630414       17.8572997158       10.3238185470
  C        25.2402479020       17.9130376841       11.0093165450
  C        24.9877138585       18.9155180586       11.9616304139
  C        23.7737092006       18.9443109629       12.6391476220
  C        22.7834634720       17.9714122956       12.3934075769
  C        23.0300399234       16.9962202690       11.4091698942
  C        24.2427337331       16.9639396961       10.7263790117
  C        21.5219927711       17.9558010253       13.1680765506
  C        21.5453804810       17.9501454766       14.5898943433
  C        22.7617617278       17.8372993704       15.3345643845
  C        14.0451317135       17.8320532844       10.2851630005
  C        15.3503190959       17.8984123170       11.0053857614
  C        15.6007027004       18.9065646794       11.9492683961
  C        16.8093693040       18.9367540564       12.6408510867
  C        17.8008979803       17.9622395821       12.4092190239
  C        17.5559143702       16.9792735158       11.4318577056
  C        16.3460542495       16.9440796540       10.7422916795
  C        19.0674134196       17.9543747946       13.1789626908
  C        19.0634520243       17.9518904618       14.6011676862
  C        17.8549304855       17.8445284279       15.3584594704
  C        46.8021648418       17.2164869384       10.1569702773
  C        45.5096514223       17.1493253356       10.8956008325
  C        45.3054383089       16.1760364381       11.8866539995
  C        44.1219147038       16.1556664609       12.6191763422
  C        43.1096264419       17.1075188511       12.3837596850
  C        43.3103096498       18.0575890707       11.3631563192
  C        44.4950115898       18.0827465219       10.6320060544
  C        41.8581666383       17.1204755023       13.1735134478
  C        41.8664381830       17.1182777583       14.5979970142
  C        43.0749997896       17.2140995911       15.3534018384
  C        20.3087821289       17.9710595395       15.3121654371
  C        20.2924754976       17.9398797206       12.4989027267
  C        46.7849713934       17.2324276560        5.8866457480
  C        45.4841724440       17.1304982351        5.1688978773
  C        45.2668631218       16.1396227867        4.1988034088
  C        44.0799313796       16.1180459475        3.4711102699
  C        43.0782898602       17.0834895309        3.6953385565
  C        43.2867070093       18.0437412113        4.7038368029
  C        44.4748231077       18.0722913349        5.4264345908
  C        41.8320218050       17.1096425189        2.9003556982
  C        41.8533758751       17.1105057331        1.4763049878
  C        43.0684223857       17.2077610853        0.7323039480
  C        46.1532681956       26.6373325212        0.7261351304
  C        46.1617424026       26.6558235228        3.5357667885
  C        14.0413956878       17.8311666128        5.7079902688
  C        15.3581493757       17.9075621982        5.0118244418
  C        15.6242181151       18.9297473694        4.0888054741
  C        16.8494940246       18.9736408479        3.4284882465
  C        17.8344357975       17.9948156123        3.6672186369
  C        17.5741114885       16.9992154978        4.6260108584
  C        16.3507169829       16.9548243156        5.2899331395
  C        19.1013259206       17.9820464743        2.8997528388
  C        19.0809958984       17.9668412789        1.4776030799
  C        17.8642831134       17.8509874335        0.7351526931
  C        28.8188394332       14.0578134557       10.3607610145
  C        28.2217585462       12.8918244646       11.0421101902
  C        28.9460821912       12.1723319188       12.0089372989
  C        28.3523458161       11.1035149490       12.6725061418
  C        27.0213170517       10.7241303180       12.3971133536
  C        26.3216352187       11.4214548784       11.3938785299
  C        26.9089530262       12.4924196965       10.7291931868
  C        26.3552822638        9.6471593618       13.1625387143
  C        26.3444960834        9.6714900956       14.5841846432
  C        26.8481944375       10.7825233920       15.3321908833
  C        32.1970985376       21.2410579734       10.1448490158
  C        32.7907958607       22.3940898507       10.8674372190
  C        32.0487790887       23.0588617438       11.8583269429
  C        32.6188031472       24.0980774780       12.5846861447
  C        33.9469742318       24.5055108645       12.3454767756
  C        34.6691651942       23.8597812735       11.3221136316
  C        34.1034667397       22.8137734290       10.5968958968
  C        34.5718667984       25.5796549526       13.1474592836
  C        34.5454153325       25.5557123377       14.5719399582
  C        34.0427105686       24.4389503838       15.3071373748
  C        25.7301882563        8.5946886614       15.3011010999
  C        25.7130662410        8.5995403232       12.4880409572
  C        32.0852043065       21.2078583034        5.8691090829
  C        32.6451840878       22.3612650573        5.1333932258
  C        31.9302960288       22.9827203666        4.0935803695
  C        32.5075406107       24.0191105741        3.3659778251
  C        33.8118821572       24.4751922182        3.6557902648
  C        34.5015639025       23.8721931949        4.7289790349
  C        33.9353142668       22.8272334301        5.4487913322
  C        34.4577077610       25.5518635483        2.8765432499
  C        34.4856905332       25.5427438012        1.4508056603
  C        34.0132902696       24.4333925988        0.6855585773
  C        40.6135708517       17.1073655259        0.7559720358
  C        40.6039653558       17.1471665938        3.5677328313
  C        28.7527752178       14.0304201089        5.8192621961
  C        28.1546312912       12.8848000359        5.1021601575
  C        28.8880567784       12.2108656661        4.1092368753
  C        28.3120802001       11.1584501478        3.4056663165
  C        26.9868063828       10.7502109106        3.6640968120
  C        26.2737640644       11.4078844266        4.6858773236
  C        26.8453162932       12.4614571786        5.3934274856
  C        26.3469422840        9.6659501616        2.8838884882
  C        26.3409520033        9.6818966229        1.4613837664
  C        26.8439207635       10.7892139031        0.7084764411
  C        18.1351469266        3.1804162088       10.3170163160
  C        17.4052930395        4.2776235460       11.0154401693
  C        16.3908323762        3.9988512973       11.9441909934
  C        15.7427318207        5.0385747178       12.6077499521
  C        16.0930407491        6.3825210060       12.3670078962
  C        17.0808572742        6.6523910803       11.4017093156
  C        17.7303107478        5.6153080419       10.7366079515
  C        15.4686531946        7.4901261479       13.1300793222
  C        15.4845269059        7.4898020550       14.5517997158
  C        16.1863077978        6.4963911072       15.3050395654
  C        42.9457536106       31.8592035375       10.0727673603
  C        43.6460138671       30.7716827036       10.8167553928
  C        44.5917635254       31.0929691991       11.8026481505
  C        45.1973834114       30.0873932818       12.5502905507
  C        44.8706850425       28.7343534993       12.3356043799
  C        43.9444595809       28.4200773784       11.3227439430
  C        43.3356590220       29.4252384621       10.5747302643
  C        45.4883181857       27.6551140742       13.1387934820
  C        45.4927140417       27.6809612541       14.5604705106
  C        44.8054473458       28.6889147242       15.3070636917
  C        14.8557408380        8.5624340354       15.2641343515
  C        14.8730894625        8.5617626137       12.4514926350
  C        42.9462681915       31.9611654948        5.8090378116
  C        43.6913256883       30.8851982821        5.0954460667
  C        44.6561406785       31.1911102448        4.1233357210
  C        45.2775424320       30.1715333796        3.4055470718
  C        44.9534913550       28.8212188981        3.6429377114
  C        44.0196119502       28.5235505380        4.6533469486
  C        43.3914049242       29.5403064620        5.3655725852
  C        45.5626275159       27.7239088529        2.8576957170
  C        45.5331775290       27.7174238519        1.4364047899
  C        44.8266941180       28.7075508266        0.6834602872
  C        35.0959407777       26.6365492122        0.7502102279
  C        35.0739426480       26.6080530595        3.5626049155
  C        18.1484236414        3.2466753804        5.7068588738
  C        17.4293548068        4.3435936509        4.9978437886
  C        16.4151013654        4.0520710552        4.0733236606
  C        15.7666077357        5.0825415337        3.3978327524
  C        16.1201208380        6.4279557798        3.6213092015
  C        17.1103208398        6.7115471435        4.5797519532
  C        17.7581503946        5.6827921269        5.2596212547
  C        15.4897174016        7.5235843861        2.8487087228
  C        15.4958960500        7.5070394020        1.4275568525
  C        16.1926371722        6.5053231672        0.6808565459
  H        10.6724419426       12.4670161874        3.9036021183
  H        11.6942477477       10.5519368035        2.6616189637
  H        15.3904854754       11.1669221572        4.7732161432
  H        14.3501411409       13.0700214741        6.0186015172
  H        13.3759757306       11.6309353217        1.2011047041
  H        50.3225399160       22.7490425620        3.9876363149
  H        49.3192363091       24.6233919941        2.6813244951
  H        45.6409049349       24.1597985648        4.8623850529
  H        46.6618998635       22.2889759252        6.1707443323
  H        47.6292558069       23.5757230730        1.2461251561
  H        14.8705518842        8.5876002644        4.6084810482
  H        50.2870974855       22.7031971047       12.0597002099
  H        49.2689581789       24.5761069260       13.3598239599
  H        45.6095297890       24.1077907712       11.1472372356
  H        46.6516694512       22.2523832534        9.8331293611
  H        47.6073358772       23.5517159230       14.7967495453
  H        40.6364863110       17.1076667093       11.4104882368
  H        48.6867266338       14.0952172717        7.7999048235
  H        10.6808746332       12.4674253526       12.0937665464
  H        11.6884469404       10.5251228680       13.2976006457
  H        15.3917501099       11.1564236429       11.2042605953
  H        14.3636955797       13.0854171287        9.9889630489
  H        13.3752854933       11.6216107114       14.7528382922
  H        47.9296288575       14.2203744563        9.7102531935
  H        47.7802289847       14.3756020225        6.4949641005
  H        49.0809166567       18.5511088156       10.8667032324
  H        10.4151987801       14.1343563319        7.9986951165
  H        24.4822224255        3.0149956300        3.9201222640
  H        25.6334506196        4.8653479462        2.6897134615
  H        23.2630495854        7.7484209407        4.8274490012
  H        22.1310007264        5.8875250552        6.0599190150
  H        23.8329047279        5.7795023029        1.2542964381
  H        36.3657451659       32.1884592383        3.9752297497
  H        35.2250495579       30.3677438246        2.7081867498
  H        37.4674141159       27.4370018820        4.9179758622
  H        38.5888781686       29.2705047707        6.1945189077
  H        36.9821320117       29.4559235482        1.2984611329
  H        25.7605347330        8.5844736927        4.6454813514
  H        36.4632438711       32.2406262855       12.1232613556
  H        35.3562242820       30.4257076846       13.4224033312
  H        37.5291507479       27.4869080957       11.1521474792
  H        38.6116497044       29.3133737420        9.8409359156
  H        37.0193310503       29.4751877062       14.8521346948
  H        46.1084489841       26.5870569057       11.3854649647
  H        44.6676648917       35.1156596221        7.8140283176
  H        24.4505851409        3.0322775954       12.0693925190
  H        25.5956653821        4.8656425140       13.3172158333
  H        23.1828069453        7.7651041104       11.2510899419
  H        22.0506811906        5.9192690158       10.0022333241
  H        23.8154902912        5.7834360294       14.8047385523
  H        44.9517546968       34.3886528391        9.6941073374
  H        44.8998341990       34.2059673503        6.4907200989
  H        40.6639448434       33.2072178492       10.8522923352
  H        23.1509661189        1.9561350506        8.0048819613
  H        25.8117223579       19.6693769083        3.8852445362
  H        23.6652915816       19.7125649836        2.6360606155
  H        22.2667877154       16.3422410057        4.9181958982
  H        24.4225028570       16.2936252475        6.1576347816
  H        23.7100416885       17.7243184544        1.2417139845
  H        35.1331452459       15.4855046630        3.9481828992
  H        37.2450042030       15.4563958781        2.6328871696
  H        38.7236978573       18.7695130780        4.9477394739
  H        36.6020863983       18.7926268762        6.2599138536
  H        37.2254426115       17.4081599450        1.2423330837
  H        20.3307061050       18.0100949985        4.6579272964
  H        35.1653686977       15.4451216917       12.1239860261
  H        37.2992698070       15.4080431002       13.4106664108
  H        38.7268135579       18.7653053744       11.1305724062
  H        36.5888924079       18.7866660727        9.8377820370
  H        37.2348650104       17.3984562959       14.7958843249
  H        35.1822871200       26.6696059743       11.4043425784
  H        28.4741282637       21.1513219030        7.8848026989
  H        25.7562821695       19.6603688556       12.1542934360
  H        23.5773394876       19.7239147006       13.3719122766
  H        22.2725710675       16.2401914532       11.2130973161
  H        24.4447990849       16.1963213988        9.9836258051
  H        23.6957589257       17.7093258671       14.7957142787
  H        29.0078706426       21.8162879409        9.7354641614
  H        29.0973747332       21.8277344019        6.5524997703
  H        32.0288199539       18.5338339025       10.9382303180
  H        27.4204465698       18.9474589064        8.0652978392
  H        14.8368779530       19.6606050502       12.1253205488
  H        17.0009046746       19.7232614556       13.3676203388
  H        18.3120099155       16.2193235417       11.2456214643
  H        16.1428788340       16.1719709613       10.0040169797
  H        16.9146897924       17.7235314037       14.8286297374
  H        46.0920647775       15.4495258617       12.0764370594
  H        43.9662213498       15.3939547846       13.3799703615
  H        42.5384604532       18.8012372563       11.1758075865
  H        44.6652428935       18.8325925529        9.8629492009
  H        44.0161355655       17.3270538330       14.8231522088
  H        20.2872961940       17.9685331904       11.4107636808
  H        46.0437813570       15.4003647130        4.0175059821
  H        43.9148197117       15.3486008300        2.7200870536
  H        42.5202363020       18.7947651823        4.8834799421
  H        44.6558172159       18.8335061026        6.1813180897
  H        44.0049380564       17.3147763116        1.2719249140
  H        46.1981444521       26.6820900639        4.6232372641
  H        52.7406926265       21.0623660122        8.1945328190
  H        14.8609968108       19.6831151288        3.9069438130
  H        17.0571990468       19.7691008675        2.7160404513
  H        18.3271864275       16.2369372801        4.8147983067
  H        16.1325916495       16.1750222665        6.0155824665
  H        16.9305793952       17.7349545560        1.2773631345
  H        52.3204321776       21.6728826408        6.2952527800
  H        52.0118032222       21.7011822196        9.4951968640
  H        49.0663790192       18.6074594006        5.2047240305
  H        13.2467533670       19.0170137382        7.9767112413
  H        29.9692197756       12.4687575640       12.2287053916
  H        28.9156135893       10.5474836128       13.4187520839
  H        25.2945778817       11.1390310115       11.1720787710
  H        26.3587964081       13.0498179806        9.9755552640
  H        27.2108059178       11.6539109983       14.7953662177
  H        31.0296070984       22.7361300606       12.0556723448
  H        32.0381459651       24.6104740814       13.3484368385
  H        35.6964309033       24.1626115961       11.1299351411
  H        34.6709502567       22.2930659714        9.8290365957
  H        33.7077065517       23.5606206336       14.7631036416
  H        25.7416766155        8.5811099174       11.4000095690
  H        30.9296261919       22.6287305734        3.8562739601
  H        31.9462647719       24.4959949407        2.5655996891
  H        35.5095716721       24.2084355552        4.9626806746
  H        34.4827220812       22.3407839291        6.2524433616
  H        33.6561133037       23.5502107566        1.2072875615
  H        40.6013606604       17.1174100807        4.6557241052
  H        32.5409143137       14.0605928616        8.2392590208
  H        29.9072764167       12.5294100151        3.9041389030
  H        28.8882164964       10.6344089313        2.6462972068
  H        25.2493881142       11.1055721972        4.8933969965
  H        26.2841607647       12.9847405901        6.1636098562
  H        27.2014517707       11.6661688552        1.2403064601
  H        33.3477617138       14.0978688147        6.4660790040
  H        33.4549989310       14.2750110870        9.5968991175
  H        32.0123112654       18.4145868037        5.1176262666
  H        30.1197080548       14.2680405582        8.0813375602
  H        16.1200373972        2.9621637550       12.1314716571
  H        14.9542174867        4.8187477994       13.3243068317
  H        17.3616168209        7.6854905921       11.2073862820
  H        18.5109903033        5.8181581426       10.0073634340
  H        16.7526916503        5.7388884927       14.7715952355
  H        44.8281708782       32.1400324078       11.9767228102
  H        45.9373051424       30.3409805520       13.3062312892
  H        43.6812771530       27.3780645452       11.1530042798
  H        42.5985516653       29.1899114940        9.8105258874
  H        44.2296342175       29.4363435739       14.7687665551
  H        14.8486131245        8.5446062640       11.3632930554
  H        44.8997840649       32.2337881200        3.9320351225
  H        46.0244890669       30.4126318868        2.6523140856
  H        43.7621299073       27.4838592837        4.8444597463
  H        42.6443955902       29.3174507523        6.1235118145
  H        44.2677238401       29.4701215133        1.2180234877
  H        35.0276051189       26.6210526128        4.6500113360
  H        36.6048447985       35.1336410269        8.1808300730
  H        16.1448858780        3.0123596161        3.9029785709
  H        14.9749669832        4.8553724331        2.6870847783
  H        17.3925865932        7.7471907930        4.7575758260
  H        18.5399492329        5.8933472418        5.9855097042
  H        16.7640275244        5.7550483507        1.2192896597
  H        36.2795562617       34.4810266073        6.2738435039
  H        36.3821053898       34.2084575480        9.5001324694
  H        40.5771706800       33.2003282892        5.1548234655
  H        17.4708849260        1.9464457597        7.9740235689
  H        29.2076953918       19.3454880446       12.5050426534
  H        28.7443590310       18.8219880985        3.7568666353
  H        31.5631370165       15.6605166805        3.5522778127
  H        31.3210640413       15.5952852775       12.4653936024
  H        28.1403435980       17.7682449977       14.4127856995
  H        29.4494578029       15.3580168783       14.3326891916
  H        32.3853519409       17.1651163537        1.4296987752
  H        18.8526063737        0.8689163843       12.3349517131
  H        40.5278196338       35.2294161738        3.9524914098
  H        42.3205611182       34.4155258673        3.5928592862
  H        22.0880192683        0.6924280851       12.3510330289
  H        11.5971797998       18.7122807201       12.3818777336
  H        52.2649310802       18.4307325289        3.6781221462
  H        49.2549714381       16.4781725448        3.5854903727
  H        10.1510627854       15.7984243206       12.2923838507
  H        50.8497419369       17.6923653414        3.9543568938
  H        10.0459748928       17.3947567287       12.0520209481
  H        20.2131979032        0.0019209953       12.0423548432
  H        39.1830980921       36.1241480440        3.6863059812
 Ni        30.4795458554       17.5531861699        2.7474639264
 Ni        30.9030152348       16.2751789574       -0.0827647311
 Ni        29.6752328243       18.1617413072        0.1685290685
 Ni        30.0941823044       17.3343960976       13.0784654595
  O        10.6498257191       14.3650175948        5.4857228936
  O        12.6131631694       14.6573978147        6.5838555326
  O        49.1479011568       16.8459595024        7.9897853046
  O        50.3500753984       20.9364841980        5.6483425218
  O        48.3484403868       20.5934047561        6.6660064394
  O        11.0513274969       17.0538479313        6.5005252496
  O        50.3209275571       20.8818322388       10.4068313637
  O        48.3467003111       20.5868472881        9.3271081628
  O        49.5432930478       18.2484604577       10.0684265102
  O        12.3586991028       18.6245225873        7.9996902185
  O        48.6930567777       14.1486358695        6.7511931335
  O         8.2096946633       14.2103035402        9.3225880910
  O        10.7352379433       14.5066324471       10.6644236637
  O        12.5718022716       14.5826620095        9.3285833909
  O        22.8444426286        2.0417104095        5.4872600018
  O        21.6064532602        3.5929765030        6.5888434385
  O        42.0575412637       34.1366104897        7.9790571064
  O        37.9813597877       33.1372117753        5.5726901163
  O        39.2176185805       31.5757760590        6.6660378270
  O        20.3082612764        1.0395973724        6.5018372275
  O        38.0248117821       33.1858845614       10.4152381705
  O        39.2188004567       31.5836023389        9.3268655818
  O        40.6520923222       33.7689202506       10.0603115357
  O        18.2559386765        1.3757906028        7.9968188462
  O        44.6222596687       35.1004338720        6.7587107890
  O        24.2053592464        0.0000459963        9.3209136554
  O        22.7534926802        2.0575807416       10.5837635099
  O        21.6251371618        3.5970165423        9.3437280149
  O        27.4828696597       18.7508754446        5.5099500662
  O        26.7017025346       16.9334005553        6.6624285871
  O        30.6302224650       19.3390336122        8.0069910060
  O        33.5899199368       16.2708192879        5.6741683090
  O        34.2659540962       18.1675503816        6.7383392868
  O        29.4462602803       16.9822669751        6.3973751938
  O        33.5906682624       16.2620465880       10.4054917550
  O        34.2657427919       18.1785404977        9.3995364436
  O        31.6425867616       18.3032557130       10.0741673073
  O        30.2867257972       15.2261027818        8.0777240967
  O        28.5110726929       21.1015052317        6.8340786463
  O        28.5483973855       21.0276275715        9.4004076715
  O        27.4583186701       18.6876988920       10.6499320727
  O        26.6885152622       16.9314295070        9.4184243599
  O        13.1464162930       18.6939277534       10.5864683261
  O        13.9188420185       16.9163046278        9.4047113857
  O        50.5955186604       19.3502123049        8.0207676306
  O        47.6831628930       16.3269693857       10.4172195396
  O        46.9515250475       18.1756578840        9.3247364872
  O        11.0692109883       17.0156379255        9.4898242314
  O        47.6760952536       16.3356828669        5.6528014103
  O        46.9276136983       18.2357527375        6.6644818299
  O        49.5688194399       18.3177930266        5.9822819669
  O        10.3186327714       15.1002614536        7.9970840921
  O        52.6706502308       21.0280568197        9.2418213501
  O        12.1467718770       20.8913833839        6.6732107784
  O        13.1053118801       18.6143826591        5.3260876656
  O        13.9563632802       16.9869695968        6.6649526802
  O        30.0062388742       14.4303128127       10.6555650265
  O        28.0748802805       14.6540743110        9.4856961733
  O        32.0654433982       16.8573600485        8.0604827328
  O        30.9719630974       20.9564735458       10.3999314844
  O        32.9479487207       20.5943637031        9.3299961755
  O        29.4470916743       17.0045406788        9.7486275475
  O        30.8466281689       20.8874106517        5.6557676254
  O        32.8644033093       20.5841006550        6.6662225910
  O        31.6073404715       18.2431057507        5.9881093964
  O        28.3333946853       18.6120525071        8.0657887393
  O        32.5294382434       14.1400467718        9.3213803908
  O        32.4452482234       14.1458207951        6.8247660257
  O        29.9204620632       14.4289475625        5.4982791535
  O        28.0346389838       14.5849229744        6.7484495431
  O        17.8891452124        1.9663869619       10.6628337795
  O        18.9562662438        3.5270642412        9.4080517342
  O        39.1686810895       34.1386919218        7.9970585223
  O        43.2801862155       33.0588701401       10.3316316555
  O        42.0345378226       31.5064157497        9.2415173225
  O        20.3173494406        1.0363046144        9.4805099293
  O        43.2760640760       33.1824394655        5.5749468765
  O        42.0052245018       31.5840519417        6.5830635504
  O        40.5790196577       33.7748807349        5.9356204896
  O        22.3668959356        1.3843459652        7.9980398071
  O        36.6726486300       35.0995744302        9.2333941382
  O        16.4453785058        0.0640611261        6.6682363968
  O        17.9364254945        2.0433780032        5.3263938111
  O        18.9192304836        3.5931201549        6.6659843853
  O        29.6491108128       18.6884766919        4.0933189656
  O        29.8563249704       18.9039509068       11.9199044710
  O        31.2694435498       16.3469855664        4.1813816452
  O        31.3074856174       16.4060224908       11.9113258916
  O        31.6433978654       16.5470185125        1.5783371321
  O        30.3308696599       15.7642679582       14.2313760410
  O        28.9830426892       18.2564226338       14.3847915959
  O        39.4567139888       35.2437594844        4.0019816137
  O        19.1405825526        0.0043016105       11.9907273248
  O        41.9697089154       35.1726377080        4.0871607093
  O        21.6915283844       -0.0690775426       11.8957508126
  O        51.3649827617       18.6143390593        4.0054148517
  O        10.7510260004       18.7472778073       11.9051016787
  O        50.0801156442       16.4128560869        4.0915840314
  O         9.5248264700       16.4830550197       11.9912677252
 Zr         9.2952013759       16.0531432077        6.1822866040
 Zr        49.8346086177       16.0071579773        9.7467507860
 Zr        22.0720714610        0.0273719393        6.1897746969
 Zr        42.4598049541       35.1514049984        9.8005303123
 Zr        29.5822253266       19.1873840448        6.2091563013
 Zr        29.5928472213       19.2826652473        9.8474441812
 Zr        11.0364056991       19.0522202322        9.8275756817
 Zr        11.0422042557       19.1549781914        6.2517180496
 Zr        31.4529800296       16.0290311432        9.8523382186
 Zr        31.4783522834       15.9424262098        6.2410840159
 Zr        18.5998469131       -0.0040498663        9.7636441403
 Zr        18.5056810118       -0.0096605909        6.2133191149
 Zr        12.2999611033       16.3237560727        7.9905547254
 Zr        48.6140092935       18.8324461714        8.0105027401
 Zr        20.3139682013        2.4710721577        7.9909180731
 Zr        40.6409451296       32.6842362536        7.9783498719
 Zr        28.1816661673       16.2582229381        8.0728184062
 Zr        32.6383230171       18.8448824146        8.0296128096
  H        29.3583551818       17.9478510268        1.6720824538
  H        29.0666102827       16.7215352756        5.5327338317
  H        29.0621840962       16.8118884202       10.6337129086
