     576
 i =      181, E =     -4780.0583328996
  C        11.8587929063       14.0535450895        5.7416285873
  C        12.4563755884       12.8906040003        5.0233223038
  C        11.7047675300       12.1718131619        4.0815013678
  C        12.2811775257       11.1096482450        3.3891088737
  C        13.6217044568       10.7397753722        3.6169722061
  C        14.3547676096       11.4431847065        4.5906381741
  C        13.7818397081       12.5081106027        5.2821935974
  C        14.2613195645        9.6491843306        2.8435510974
  C        14.2566293684        9.6570893140        1.4218471352
  C        13.7433452125       10.7591502683        0.6679260506
  C        49.1268292475       21.2332430567        5.8797550565
  C        48.5500826196       22.4011686127        5.1526214091
  C        49.3001586360       23.0685820575        4.1717284523
  C        48.7332304068       24.1077326760        3.4385386486
  C        47.4026475248       24.5092698485        3.6670781750
  C        46.6716189329       23.8602698128        4.6804468599
  C        47.2340756321       22.8153610701        5.4097884281
  C        46.7724103232       25.5869790544        2.8698115516
  C        46.7614157652       25.5573959217        1.4480494078
  C        47.2613199557       24.4422874830        0.7045598653
  C        14.8606299749        8.5707813728        0.7085847373
  C        14.8921414207        8.5972535348        3.5201904187
  C        49.1132682309       21.2034558670       10.1454390639
  C        48.5279202956       22.3648214948       10.8726272188
  C        49.2671960351       23.0256681172       11.8654123564
  C        48.6908587984       24.0602353281       12.5968532421
  C        47.3603859782       24.4568638486       12.3587298095
  C        46.6398901145       23.8117835304       11.3353825048
  C        47.2134484324       22.7758544087       10.6036357104
  C        46.7219524552       25.5318695366       13.1497259349
  C        46.7336579135       25.5282309409       14.5714279053
  C        47.2490579077       24.4289948336       15.3277992717
  C        40.6329607704       17.1152500877       15.3237936428
  C        40.6513103710       17.1530665274       12.5150898839
  C        11.8829518068       14.0865775834       10.2854719226
  C        12.4722567707       12.9106778196       10.9896395948
  C        11.7147337544       12.1775288192       11.9157777647
  C        12.2812937741       11.0950551061       12.5842031349
  C        13.6200889834       10.7212840799       12.3523354849
  C        14.3580462548       11.4367510170       11.3914469856
  C        13.7926416100       12.5179345727       10.7187570400
  C        14.2537453378        9.6245774079       13.1227650305
  C        14.2526203385        9.6446290779       14.5446060265
  C        13.7427091679       10.7535672912       15.2916697221
  C        22.5106894229        3.2457008434        5.7519986538
  C        23.2204444201        4.3539781624        5.0509028463
  C        24.2215064558        4.0800124096        4.1072270613
  C        24.8434290724        5.1232798930        3.4256752770
  C        24.4797206733        6.4633787666        3.6664264416
  C        23.5062670146        6.7289150453        4.6468364811
  C        22.8804033953        5.6876114086        5.3273091693
  C        25.0816773920        7.5731961795        2.8916748449
  C        25.0669012329        7.5611024300        1.4697227827
  C        24.3747829528        6.5563428215        0.7215651536
  C        38.3010831887       31.9315410607        5.8513324851
  C        37.5665641593       30.8434149822        5.1458960084
  C        36.6031802238       31.1493704966        4.1726546864
  C        35.9814078956       30.1302285469        3.4571678155
  C        36.3091920974       28.7810024442        3.6935009748
  C        37.2422263916       28.4823719628        4.7040341755
  C        37.8678028751       29.5002613858        5.4186923330
  C        35.7050947132       27.6910069898        2.8962176746
  C        35.7368304358       27.7069491091        1.4750192270
  C        36.4436171515       28.7094121026        0.7387116386
  C        25.6921785841        8.6306469988        0.7507753449
  C        25.6647357430        8.6555699349        3.5634185821
  C        38.3294744519       31.9619044659       10.1580587817
  C        37.6092583122       30.8896671033       10.9037426704
  C        36.6781975554       31.2005315548       11.9067362877
  C        36.0669764716       30.1840162126       12.6383758925
  C        36.3721684284       28.8305530028       12.3909579277
  C        37.2823632674       28.5295672003       11.3591076889
  C        37.8956118484       29.5426507426       10.6286560005
  C        35.7601948839       27.7332050881       13.1754002761
  C        35.7648284541       27.7286113351       14.5977143980
  C        36.4565512295       28.7201353665       15.3620070581
  C        46.1356747780       26.6208841307       15.2815568485
  C        46.0879979060       26.5802131954       12.4736574196
  C        22.4634229769        3.2571021508       10.2582294532
  C        23.1620898504        4.3655678566       10.9793936726
  C        24.1670386237        4.0786390118       11.9172070269
  C        24.7992603187        5.1077929720       12.6115646030
  C        24.4473818322        6.4547614114       12.3916137197
  C        23.4657147785        6.7349304557       11.4219502281
  C        22.8290090758        5.7060570645       10.7279552501
  C        25.0796281683        7.5529193631       13.1666462752
  C        25.0671996601        7.5494026643       14.5897201965
  C        24.3722700363        6.5523824251       15.3446780277
  C        26.6281003442       17.8661104543        5.7446140604
  C        25.3244674754       17.9197056027        5.0170373678
  C        25.0574335060       18.9195733318        4.0688355893
  C        23.8377049469       18.9431719642        3.3946606295
  C        22.8494218597       17.9694077315        3.6456637242
  C        23.1131607595       16.9918807884        4.6234333390
  C        24.3328826328       16.9645007483        5.2967075307
  C        21.5737476035       17.9543218156        2.8864455970
  C        21.5764769973       17.9332302735        1.4643594309
  C        22.7834385969       17.8047320070        0.7072606596
  C        34.4937559113       17.2225161598        5.9958630266
  C        35.7763964521       17.1640804362        5.2389020201
  C        35.9600606020       16.1885867990        4.2462486008
  C        37.1240370761       16.1735148981        3.4826715841
  C        38.1365159110       17.1285049742        3.6970316482
  C        37.9550059693       18.0844715070        4.7149415061
  C        36.7862314121       18.1094560173        5.4713325118
  C        39.3833541932       17.1283124300        2.8993214218
  C        39.3760230248       17.1339255224        1.4776121133
  C        38.1678278662       17.2481844771        0.7204754261
  C        20.3315254836       17.9536931275        0.7541062639
  C        20.3485838493       17.9525124255        3.5683521782
  C        34.4949837506       17.2177770445       10.1539700245
  C        35.7897100218       17.1493998016       10.8867663356
  C        36.0011066651       16.1619149808       11.8606159847
  C        37.1802408466       16.1481975915       12.5997523840
  C        38.1766611357       17.1186034237       12.3809961578
  C        37.9716936462       18.0819883834       11.3757198306
  C        36.7891967157       18.1033106836       10.6420859736
  C        39.4207246504       17.1360294578       13.1801674531
  C        39.3955287861       17.1392264360       14.6012109206
  C        38.1770493232       17.2489213834       15.3432375033
  C        35.1313025636       26.6508132045       15.3015850302
  C        35.1711952751       26.6617117280       12.4922482323
  C        26.5923805074       17.8069988805       10.3331981750
  C        25.2798398281       17.8684320642       11.0402744505
  C        25.0294433872       18.8659202836       11.9943971744
  C        23.8064206356       18.9066727098       12.6589787054
  C        22.8067050644       17.9479181519       12.3971784461
  C        23.0540531668       16.9747556971       11.4117875489
  C        24.2754429213       16.9338711007       10.7427867859
  C        21.5395921328       17.9357621311       13.1652969626
  C        21.5589048444       17.9213484999       14.5869349217
  C        22.7748916068       17.7974834745       15.3312394640
  C        14.0485242781       17.8315715734       10.2861620803
  C        15.3563112577       17.8962638867       11.0054685834
  C        15.6142321738       18.9069731558       11.9447904334
  C        16.8255123328       18.9354527140       12.6335288328
  C        17.8133204691       17.9561072850       12.4052407856
  C        17.5606485327       16.9701969205       11.4326633636
  C        16.3487734120       16.9372725518       10.7453535495
  C        19.0824309742       17.9435977033       13.1750362507
  C        19.0773711781       17.9387042960       14.5976996063
  C        17.8687073925       17.8399647811       15.3566415236
  C        46.8053443582       17.2191399015       10.1592701407
  C        45.5168655844       17.1581934091       10.9063723634
  C        45.3119924991       16.1797650682       11.8914447893
  C        44.1317308833       16.1622834883       12.6295275969
  C        43.1271067634       17.1235574771       12.4045190335
  C        43.3293648295       18.0817900913       11.3929534044
  C        44.5101921963       18.1030254490       10.6555808523
  C        41.8749138274       17.1342990394       13.1937290957
  C        41.8800271185       17.1294761061       14.6153322828
  C        43.0893572080       17.2222535241       15.3732689020
  C        20.3222593209       17.9475750861       15.3089799357
  C        20.3084732360       17.9268682742       12.4959158350
  C        46.7866678875       17.2308521381        5.8904954668
  C        45.4840627403       17.1249720772        5.1766276501
  C        45.2652749914       16.1248494104        4.2173693568
  C        44.0779443538       16.0990371573        3.4906594073
  C        43.0815744644       17.0703290522        3.7071688429
  C        43.2903268725       18.0397679936        4.7055959941
  C        44.4787257480       18.0720055465        5.4273500816
  C        41.8365655220       17.0939732221        2.9104665258
  C        41.8605647374       17.1072685432        1.4901384424
  C        43.0801699601       17.2090479301        0.7497426598
  C        46.1534210153       26.6372951542        0.7263139689
  C        46.1624481594       26.6560787278        3.5359556250
  C        14.0451441542       17.8312206869        5.7066540199
  C        15.3645718110       17.9058084866        5.0113198298
  C        15.6359223098       18.9251990769        4.0862136202
  C        16.8632244712       18.9660848343        3.4279297452
  C        17.8480364950       17.9867500145        3.6684319836
  C        17.5826471066       16.9945371774        4.6300186872
  C        16.3573651259       16.9533414978        5.2920730027
  C        19.1165427802       17.9690045006        2.8997423755
  C        19.0952286687       17.9510609470        1.4775903435
  C        17.8772663484       17.8453464276        0.7332777386
  C        28.8126663402       14.0885419659       10.3605816497
  C        28.2046740346       12.9189162210       11.0601429515
  C        28.9314092526       12.1820054226       12.0071950888
  C        28.3342087525       11.1105885132       12.6679824263
  C        26.9974378604       10.7493833701       12.4034340788
  C        26.2921560058       11.4678502764       11.4210368879
  C        26.8855341497       12.5410772063       10.7613114633
  C        26.3305263895        9.6678813062       13.1660854433
  C        26.3123416536        9.6964174135       14.5872721958
  C        26.8119274433       10.8108723578       15.3332210336
  C        32.1793877534       21.2480520290       10.1509806748
  C        32.7729037196       22.4096000557       10.8747332684
  C        32.0200456330       23.0917611608       11.8436188769
  C        32.5890064986       24.1308463061       12.5737315283
  C        33.9255111976       24.5172743890       12.3533432965
  C        34.6606253438       23.8534194524       11.3534357409
  C        34.0949419627       22.8076620525       10.6269053891
  C        34.5525712453       25.5942796972       13.1522900727
  C        34.5396425229       25.5672125612       14.5736632809
  C        34.0272035839       24.4536313924       15.3115004334
  C        25.6987456888        8.6199476049       15.3054678367
  C        25.6968456544        8.6152974924       12.4918808386
  C        32.0980236995       21.2313710831        5.8882470135
  C        32.6828198743       22.3872122031        5.1506615136
  C        31.9462990282       23.0423104160        4.1514931741
  C        32.5240886819       24.0726141450        3.4137945878
  C        33.8513409565       24.4768156091        3.6572171394
  C        34.5702052724       23.8349462477        4.6840061600
  C        33.9978175664       22.7990017743        5.4169518501
  C        34.4904882304       25.5576837444        2.8721750771
  C        34.5070737276       25.5486787421        1.4502118216
  C        34.0107393372       24.4446330824        0.6881557121
  C        40.6225676567       17.1080222500        0.7680675128
  C        40.6075029608       17.1241395053        3.5768522498
  C        28.7143110838       14.0922401082        5.8242684231
  C        28.0945328240       12.9513751573        5.0874475733
  C        28.8298694278       12.2473563995        4.1209229066
  C        28.2485646876       11.1932490248        3.4217101301
  C        26.9128963367       10.8130984523        3.6620610646
  C        26.1924994122       11.5045046801        4.6546552159
  C        26.7730343952       12.5608016108        5.3557792041
  C        26.2779674269        9.7186928011        2.8875876733
  C        26.2855720138        9.7235098903        1.4649981837
  C        26.7956578465       10.8257736756        0.7093040009
  C        18.1354101610        3.1810078681       10.3172040146
  C        17.4060974418        4.2782443816       11.0157478620
  C        16.3904268544        3.9998872871       11.9433246236
  C        15.7427165860        5.0398744370       12.6068171225
  C        16.0945739949        6.3835963747       12.3670450817
  C        17.0838634472        6.6531127560       11.4031818872
  C        17.7329581796        5.6157662905       10.7381482615
  C        15.4702852521        7.4913062675       13.1300854162
  C        15.4857238913        7.4906986727       14.5517925443
  C        16.1874087467        6.4971655420       15.3049508025
  C        42.9459413288       31.8595542531       10.0729562828
  C        43.6463566823       30.7719280117       10.8168479156
  C        44.5917657890       31.0932663006       11.8030416130
  C        45.1974913569       30.0877231777       12.5506870386
  C        44.8712091940       28.7346316930       12.3357363263
  C        43.9455463235       28.4202841732       11.3223684605
  C        43.3367107251       29.4254140945       10.5743346468
  C        45.4888001890       27.6553467711       13.1389323442
  C        45.4929600949       27.6809975108       14.5606263898
  C        44.8058475458       28.6890189553       15.3072581792
  C        14.8567630299        8.5631933469       15.2641537846
  C        14.8749026543        8.5630089815       12.4514835509
  C        42.9464342407       31.9615593025        5.8090024686
  C        43.6916962434       30.8854644348        5.0955816131
  C        44.6561747039       31.1913882305        4.1231581428
  C        45.2777304019       30.1718096305        3.4054613472
  C        44.9540961304       28.8214633893        3.6431843669
  C        44.0207488375       28.5237858611        4.6540946404
  C        43.3924604349       29.5405417756        5.3662628418
  C        45.5631388154       27.7240850015        2.8579182245
  C        45.5334525586       27.7174422224        1.4366172592
  C        44.8271000088       28.7076406767        0.6836527719
  C        35.1157984018       26.6403944646        0.7464385321
  C        35.1009352035       26.6155534259        3.5563257729
  C        18.1487535587        3.2471717174        5.7066860216
  C        17.4302732263        4.3440430295        4.9973623885
  C        16.4151551198        4.0528041501        4.0736823275
  C        15.7669083573        5.0834499489        3.3982618135
  C        16.1215453145        6.4286808397        3.6210453241
  C        17.1128325707        6.7120302077        4.5784138941
  C        17.7604381645        5.6831038930        5.2582198384
  C        15.4910605909        7.5243764093        2.8485994102
  C        15.4969406619        7.5077298626        1.4274674942
  C        16.1937312283        6.5060510440        0.6807637746
  H        10.6726595054       12.4659906759        3.9044149951
  H        11.6949223175       10.5512396095        2.6624854615
  H        15.3917480774       11.1684802856        4.7724968617
  H        14.3511744381       13.0712055578        6.0178311762
  H        13.3762363784       11.6312399802        1.2012267582
  H        50.3229003701       22.7486089294        3.9870670614
  H        49.3197364509       24.6230724118        2.6810284918
  H        45.6420586434       24.1608896225        4.8634799312
  H        46.6630069785       22.2900042708        6.1717597961
  H        47.6297653459       23.5758731008        1.2462493314
  H        14.8724193136        8.5884732709        4.6084964057
  H        50.2872954098       22.7029265330       12.0602132892
  H        49.2692779938       24.5758036951       13.3602593918
  H        45.6104110263       24.1088571797       11.1464674505
  H        46.6525427498       22.2535290387        9.8322447698
  H        47.6077482740       23.5518422310       14.7968968491
  H        40.6567295227       17.1251327440       11.4271691572
  H        48.6871184939       14.0948039311        7.8000199020
  H        10.6812655872       12.4666270590       12.0931761951
  H        11.6894727838       10.5246648733       13.2968821938
  H        15.3934550878       11.1588003149       11.2054782242
  H        14.3649491816       13.0872781739        9.9901794559
  H        13.3757232978       11.6221016587       14.7530097787
  H        47.9300859345       14.2182851388        9.7107045417
  H        47.7800797377       14.3735452516        6.4952913153
  H        49.0840453466       18.5522681452       10.8675135591
  H        10.4160034719       14.1342915352        7.9987666973
  H        24.4905880658        3.0431359206        3.9181603303
  H        25.6204936381        4.9098096996        2.6948963368
  H        23.2170690593        7.7599473781        4.8396407968
  H        22.1071404379        5.8839265267        6.0659810408
  H        23.8127960077        5.7989772202        1.2602477026
  H        36.3671948007       32.1930490882        3.9789914628
  H        35.2342032144       30.3697992766        2.7038019372
  H        37.5019155361       27.4427812010        4.8927858437
  H        38.6142941387       29.2788006002        6.1777349792
  H        37.0076124817       29.4594043829        1.2855633952
  H        25.6893954689        8.6431409457        4.6516034084
  H        36.4537740831       32.2451784429       12.1101268403
  H        35.3391191461       30.4313625621       13.4079786730
  H        37.5309853115       27.4889555296       11.1614251341
  H        38.6200506495       29.3145466363        9.8505996106
  H        37.0315660895       29.4778554727       14.8375191110
  H        46.1094043328       26.5875678060       11.3856217289
  H        44.6682618694       35.1161515453        7.8139195649
  H        24.4436926124        3.0400404793       12.0840885723
  H        25.5815465847        4.8765940781       13.3314448504
  H        23.1814667253        7.7697678771       11.2420673185
  H        22.0555785804        5.9212541896        9.9942060433
  H        23.8075808643        5.7926978336       14.8120189778
  H        44.9537716595       34.3903698087        9.6951698875
  H        44.9014743722       34.2068219411        6.4904597818
  H        40.6662330037       33.2092907870       10.8533338128
  H        23.1506443959        1.9580676381        8.0050467307
  H        25.8111896204       19.6799078399        3.8773283714
  H        23.6353932629       19.7252121268        2.6659134834
  H        22.3624209736       16.2306627123        4.8258028557
  H        24.5463755840       16.1979828880        6.0379325116
  H        23.7225872050       17.6789740784        1.2378977116
  H        35.1721094925       15.4566018273        4.0823022710
  H        37.2653076240       15.4120750968        2.7187088360
  H        38.7298513582       18.8296370226        4.8826471524
  H        36.6273684273       18.8645852377        6.2376589941
  H        37.2271442116       17.3670711592        1.2507797808
  H        20.3539482856       17.9896856265        4.6563418487
  H        35.2221998260       15.4240201649       12.0369319382
  H        37.3428809909       15.3814808598       13.3540342824
  H        38.7359924353       18.8370391929       11.2039687812
  H        36.6083062153       18.8643720915        9.8867997980
  H        37.2431944403       17.3671161668       14.8008889554
  H        35.1475150357       26.6854626343       11.4043996423
  H        28.5070884490       21.0868253074        7.9910368391
  H        25.8053677611       19.6001397923       12.1995058107
  H        23.6120950134       19.6857368151       13.3929458403
  H        22.2918778637       16.2266411758       11.2035780515
  H        24.4805178421       16.1712094565        9.9954181186
  H        23.7074237941       17.6659523242       14.7906818142
  H        28.9937186598       21.7200023080        9.7674043639
  H        29.1371344256       21.7532442012        6.6135692412
  H        32.1104924855       18.5472251190       11.0026495722
  H        27.4035420515       19.0784068507        8.0858701253
  H        14.8545541201       19.6653888873       12.1203758344
  H        17.0210841676       19.7249658218       13.3560229899
  H        18.3128302255       16.2061375387       11.2471627059
  H        16.1422972089       16.1625611249       10.0106873041
  H        16.9270432284       17.7273715300       14.8272092125
  H        46.0946571025       15.4465792669       12.0714752262
  H        43.9727065580       15.3957365846       13.3847602044
  H        42.5614298813       18.8318240125       11.2154148488
  H        44.6830979092       18.8569018517        9.8911397312
  H        44.0307732261       17.3367204003       14.8435985440
  H        20.3045627768       17.9587226648       11.4077997497
  H        46.0414659994       15.3833337484        4.0426584910
  H        43.9094744972       15.3238672460        2.7462927828
  H        42.5247265617       18.7932820611        4.8781292104
  H        44.6630700268       18.8391436673        6.1753319498
  H        44.0145926106       17.3120587996        1.2937220932
  H        46.1992799846       26.6825799111        4.6234023535
  H        52.7410726826       21.0625995782        8.1946881999
  H        14.8751941130       19.6801704737        3.9001743171
  H        17.0719381311       19.7607785169        2.7148699750
  H        18.3333962290       16.2310496548        4.8234120474
  H        16.1387412352       16.1748961231        6.0191004605
  H        16.9421493620       17.7366481144        1.2744996843
  H        52.3221088378       21.6731676400        6.2944641070
  H        52.0128526179       21.7017391617        9.4956257199
  H        49.0677334568       18.6077501874        5.2044537107
  H        13.2475126123       19.0166015223        7.9763868589
  H        29.9628391750       12.4615558172       12.2108981653
  H        28.9000707617       10.5395147049       13.4009414649
  H        25.2589128291       11.2002200277       11.2095690571
  H        26.3373996330       13.1167116161       10.0194974744
  H        27.1816157687       11.6772450186       14.7929612228
  H        30.9898399898       22.7878703890       12.0150690439
  H        32.0003708334       24.6583037289       13.3212137270
  H        35.6950538609       24.1424127091       11.1791016919
  H        34.6682717406       22.2698903366        9.8753316196
  H        33.6709546270       23.5847408159       14.7657239375
  H        25.7291406456        8.5957818354       11.4039172514
  H        30.9258848017       22.7209306864        3.9562683150
  H        31.9471133708       24.5804256088        2.6440135914
  H        35.5979988371       24.1357664744        4.8761670300
  H        34.5592121264       22.2793754250        6.1899164943
  H        33.6425891733       23.5685280405        1.2147024663
  H        40.6019313576       17.0902153941        4.6645820370
  H        32.5089466696       14.1347475949        8.2574485555
  H        29.8614700291       12.5348306993        3.9343400392
  H        28.8296637531       10.6454414850        2.6830893671
  H        25.1589679119       11.2248468993        4.8486236791
  H        26.2119174460       13.1080585467        6.1097413839
  H        27.1513431822       11.7041890339        1.2399730078
  H        33.3055029702       14.2272502714        6.4594153225
  H        33.4090259695       14.4152234999        9.5937221689
  H        32.1686919971       18.5921508821        5.1236327005
  H        30.2371357575       14.1963004376        8.0716623340
  H        16.1183923825        2.9633851176       12.1297736412
  H        14.9532917525        4.8205097486       13.3225112574
  H        17.3662084358        7.6859974323       11.2099889920
  H        18.5149420098        5.8184032746       10.0102400103
  H        16.7539609305        5.7398284609       14.7714412901
  H        44.8279687707       32.1403497834       11.9773187203
  H        45.9372748316       30.3414937611       13.3067055138
  H        43.6829984233       27.3781977734       11.1521320962
  H        42.6002644969       29.1900190690        9.8095256331
  H        44.2304587331       29.4367685228       14.7689698113
  H        14.8510095203        8.5461727281       11.3632664650
  H        44.8996456945       32.2340702356        3.9316274613
  H        46.0245580301       30.4130546074        2.6521527467
  H        43.7639100458       27.4840449723        4.8457660957
  H        42.6461098378       29.3176857766        6.1248344377
  H        44.2685402590       29.4704982564        1.2182218909
  H        35.0588787021       26.6276396344        4.6437841912
  H        36.6051722787       35.1342172461        8.1805030375
  H        16.1440514956        3.0132372906        3.9039378191
  H        14.9746193506        4.8566284327        2.6881290915
  H        17.3962788187        7.7475009246        4.7553804688
  H        18.5431943914        5.8935318065        5.9831207537
  H        16.7652373297        5.7558575652        1.2191894535
  H        36.2787932533       34.4827508662        6.2732110035
  H        36.3807330308       34.2092256342        9.4995189972
  H        40.5805155770       33.2030505352        5.1540643937
  H        17.4709457424        1.9475785911        7.9743150142
  H        29.1804715542       19.4146482209       12.4885027931
  H        28.8048747008       19.1685376327        3.6818566705
  H        31.3538917191       14.8128545465        4.0074212379
  H        31.3608169859       15.6088383861       12.5386921585
  H        28.2820779163       17.8507747748       14.6263494355
  H        29.2277206752       15.3917540246       14.0155716990
  H        31.2510629106       20.6212223968       -0.0671569326
  H        31.9772236826       17.7185375165        1.2964440104
  H        28.2278558626       16.9462499459        1.9382685175
  H        31.0076660222       20.8016250907       14.3737789700
  H        18.8534322506        0.8688757898       12.3353927067
  H        40.5279419538       35.2290490075        3.9519863017
  H        42.3247013908       34.4194015620        3.5904448964
  H        22.0879685349        0.6923149585       12.3516460739
  H        11.5967641961       18.7133669860       12.3829180682
  H        52.2647752181       18.4312207403        3.6771497283
  H        49.2551730326       16.4769408287        3.5846588316
  H        10.1508675364       15.7980708402       12.2925359006
  H        50.8499413141       17.6923625303        3.9542499291
  H        10.0464489741       17.3943902085       12.0520401143
  H        20.2147371305        0.0023547158       12.0420335609
  H        39.1837394315       36.1244181247        3.6861692769
 Ni        30.3960469076       16.4682522745        2.7542859993
 Ni        29.5482629183       16.5666976548        0.0745142359
 Ni        30.1346368219       18.7702199044       -0.3362801830
 Ni        30.0164644344       17.4251153739       13.0764907642
  O        10.6500706507       14.3650695022        5.4858147504
  O        12.6132846429       14.6575762842        6.5839246029
  O        49.1481045642       16.8459175003        7.9898257869
  O        50.3503025446       20.9359016600        5.6481284833
  O        48.3485948628       20.5933403818        6.6659442699
  O        11.0519093624       17.0536958128        6.5007279941
  O        50.3211264439       20.8817137848       10.4068438119
  O        48.3468046862       20.5868491699        9.3271931117
  O        49.5441293485       18.2484354383       10.0683768727
  O        12.3592080735       18.6245421482        7.9996974466
  O        48.6933061237       14.1484987408        6.7513266466
  O         8.2098840024       14.2103491502        9.3225561734
  O        10.7353892455       14.5067340611       10.6643214207
  O        12.5718542757       14.5828517660        9.3284773028
  O        22.8449084609        2.0447143883        5.4868197427
  O        21.6053159750        3.5924759445        6.5902478610
  O        42.0582817279       34.1375770736        7.9791161956
  O        37.9817376288       33.1398405378        5.5730598925
  O        39.2181063751       31.5768326469        6.6666783050
  O        20.3086824373        1.0401885915        6.5022881035
  O        38.0247553937       33.1858916214       10.4152892339
  O        39.2187415290       31.5834132078        9.3270469515
  O        40.6523368670       33.7694935177       10.0603770497
  O        18.2555769789        1.3763283740        7.9969005787
  O        44.6221723064       35.1006135612        6.7587265444
  O        24.2054236640        0.0000518704        9.3207930782
  O        22.7535697852        2.0585288536       10.5844194603
  O        21.6253873603        3.5972401993        9.3446811297
  O        27.5487043548       18.7007854907        5.4133345609
  O        26.7329530756       16.9937157669        6.6655185333
  O        30.6766568963       19.4056545381        8.0626591908
  O        33.6637819195       16.2739068872        5.8230039180
  O        34.3052743770       18.2488318184        6.7431166276
  O        29.5791151107       17.0718122294        6.5739068996
  O        33.6544558835       16.2721227303       10.3357202183
  O        34.3102596143       18.2423600845        9.4090187571
  O        31.7116858972       18.3120245974       10.1478685205
  O        30.3276455314       15.1633650579        8.0771341150
  O        28.5516163710       21.0321205584        6.9080799922
  O        28.5142651105       20.9533999307        9.4095441550
  O        27.5040136939       18.6267051081       10.6690527022
  O        26.6942169027       16.9234736219        9.4059688682
  O        13.1491790832       18.6932259010       10.5870805575
  O        13.9200140093       16.9163699956        9.4052974069
  O        50.5963260430       19.3503024876        8.0207505244
  O        47.6833088566       16.3269324621       10.4171266370
  O        46.9518149835       18.1759523873        9.3247210121
  O        11.0699381242       17.0153849846        9.4896240778
  O        47.6766965912       16.3351730121        5.6535489214
  O        46.9290551158       18.2356941688        6.6653248174
  O        49.5692086938       18.3177258992        5.9824674245
  O        10.3186799597       15.1001460837        7.9971057617
  O        52.6707700293       21.0279007528        9.2418411160
  O        12.1468456155       20.8911826361        6.6732340110
  O        13.1077327591       18.6139505137        5.3254419594
  O        13.9577606019       16.9874972509        6.6642449888
  O        30.0029298059       14.4359833658       10.6646025193
  O        28.0802865324       14.6587479182        9.4812945552
  O        32.1052068296       16.9140701818        8.0673419056
  O        30.9660709310       20.9563210019       10.4069183568
  O        32.9479060643       20.6116472516        9.3426596836
  O        29.5739111946       17.0772611419        9.5723160901
  O        30.8689604337       20.9437028840        5.6671529062
  O        32.8751130270       20.5834433999        6.6655367062
  O        31.6112249152       18.2385791516        5.8348923196
  O        28.2896127512       18.6806511412        8.0739780413
  O        32.4921187989       14.2111864812        9.3280690568
  O        32.4042006529       14.2118802312        6.8246295884
  O        29.9028077220       14.4293986418        5.5082126629
  O        28.0051853370       14.6492034647        6.7390928673
  O        17.8892523214        1.9666572790       10.6628093100
  O        18.9563040664        3.5271800918        9.4080322067
  O        39.1687024812       34.1389027577        7.9972661603
  O        43.2802456571       33.0590209632       10.3317153172
  O        42.0345411827       31.5064767073        9.2416646575
  O        20.3178137646        1.0368727029        9.4802275936
  O        43.2760187884       33.1825718963        5.5749346543
  O        42.0052105215       31.5841195421        6.5830352392
  O        40.5793285417       33.7754973684        5.9363598060
  O        22.3674654495        1.3849046320        7.9980702681
  O        36.6727938694       35.0998085352        9.2332508358
  O        16.4456210567        0.0645739143        6.6684386725
  O        17.9365498707        2.0435819714        5.3263906793
  O        18.9191644170        3.5931862859        6.6660584099
  O        29.7307999977       19.1238883936        3.9963359188
  O        29.9056956629       18.9959240165       11.9800031827
  O        31.6039810341       15.7558763496        4.0822934051
  O        31.3003223785       16.4174973502       11.9960343988
  O        32.0717661726       16.7222318324        1.5763722745
  O        29.1026047142       17.2898204851        1.6757961847
  O        29.9570638738       15.9593747875       14.3326161855
  O        30.5504272524       20.8034028520       15.2352917879
  O        31.4293210369       19.1255673682        0.9929952173
  O        28.9364420479       18.4782386116       14.2436390318
  O        39.4568374038       35.2438746936        4.0019794381
  O        19.1414785432        0.0044958385       11.9905593671
  O        41.9696328390       35.1727822040        4.0873305544
  O        21.6914832503       -0.0690406191       11.8959474583
  O        51.3650175608       18.6142817440        4.0054275004
  O        10.7511917688       18.7472508493       11.9049611985
  O        50.0797129911       16.4128086376        4.0917748152
  O         9.5249546650       16.4829547692       11.9912126239
 Zr         9.2968194799       16.0526638268        6.1825279672
 Zr        49.8360832310       16.0066465266        9.7464471482
 Zr        22.0733158117        0.0302145321        6.1891003463
 Zr        42.4611010379       35.1537642066        9.8011629593
 Zr        29.6154681419       19.1137874358        6.3346699985
 Zr        29.5988372930       19.1673502901        9.8711951528
 Zr        11.0381548192       19.0517913358        9.8277914918
 Zr        11.0437645341       19.1547349166        6.2512009262
 Zr        31.3616360510       16.1022980580        9.8656629922
 Zr        31.4070105556       16.0042006466        6.2828635144
 Zr        18.6011298665       -0.0013497795        9.7633079397
 Zr        18.5067290388       -0.0068863428        6.2139253790
 Zr        12.3021062085       16.3236418252        7.9903467577
 Zr        48.6165385113       18.8331157049        8.0106030139
 Zr        20.3157079537        2.4739757486        7.9912633179
 Zr        40.6437197892       32.6872679522        7.9784748410
 Zr        28.3408962870       16.3514594311        8.0823630340
 Zr        32.6640164195       18.8561403696        8.0745771456
  H        29.2992731550       16.2060503713        3.6603111549
  H        29.9938132841       18.1845900412        3.7006434634
  H        32.7822991026       16.6544504936        2.2397684811
  H        30.9343182413       19.3105263112        1.8143311687
