     571
 i =      238, E =     -4761.6439917373
  C        11.8584998359       14.0534069894        5.7415999235
  C        12.4559722777       12.8902935773        5.0233670492
  C        11.7045358323       12.1720220678        4.0810358732
  C        12.2808433928       11.1097762307        3.3886665882
  C        13.6211469075       10.7393715578        3.6169714682
  C        14.3540157376       11.4422478956        4.5911820176
  C        13.7811677985       12.5072193585        5.2827291660
  C        14.2607170327        9.6487731939        2.8435323721
  C        14.2561796237        9.6567487259        1.4218193994
  C        13.7430247189       10.7588644268        0.6678877625
  C        49.1264689593       21.2334565654        5.8797678606
  C        48.5495861697       22.4012221848        5.1525965912
  C        49.2997694465       23.0688938824        4.1719496815
  C        48.7327850626       24.1079632421        3.4387205450
  C        47.4020661876       24.5091800366        3.6670231422
  C        46.6709182351       23.8599482800        4.6801475634
  C        47.2334239758       22.8150767117        5.4095119766
  C        46.7719698287       25.5869494545        2.8697393804
  C        46.7609754688       25.5573510218        1.4479827413
  C        47.2608541834       24.4421940629        0.7045486538
  C        14.8601066644        8.5703850847        0.7085704907
  C        14.8914277427        8.5967662273        3.5201737694
  C        49.1128642866       21.2035229305       10.1453601775
  C        48.5274109040       22.3647571340       10.8725759316
  C        49.2667168292       23.0258006879       11.8652137735
  C        48.6902773267       24.0602705719       12.5966891700
  C        47.3596894464       24.4566161757       12.3587212192
  C        46.6391181508       23.8112863432       11.3355902821
  C        47.2127806851       22.7754389229       10.6038070149
  C        46.7212734735       25.5316133570       13.1497256148
  C        46.7331592910       25.5280963396       14.5714187920
  C        47.2485228359       24.4288426952       15.3277887848
  C        40.6322499122       17.1338696123       15.3284776823
  C        40.6528740705       17.1765615570       12.5195085474
  C        11.8826825225       14.0863934065       10.2854507704
  C        12.4718097157       12.9102680357       10.9894870956
  C        11.7143987152       12.1776052021       11.9160903806
  C        12.2808228242       11.0950536915       12.5845183323
  C        13.6193999788       10.7207502595       12.3522485339
  C        14.3571664066       11.4356401886       11.3907734466
  C        13.7918923501       12.5168887943       10.7180823698
  C        14.2530308720        9.6240730663       13.1227270605
  C        14.2521075764        9.6442294014       14.5445747814
  C        13.7423546656       10.7532474363       15.2916306167
  C        22.5102316243        3.2441245244        5.7517624035
  C        23.2213589123        4.3494750457        5.0486854613
  C        24.2170105760        4.0694433412        4.1011833592
  C        24.8415661736        5.1089069124        3.4168229719
  C        24.4859552176        6.4505212970        3.6597159054
  C        23.5176774846        6.7220899125        4.6434786646
  C        22.8886298333        5.6844490911        5.3263822215
  C        25.0926356150        7.5566702051        2.8844676097
  C        25.0713816906        7.5487102975        1.4628313930
  C        24.3697728985        6.5503926307        0.7150067224
  C        38.2973187028       31.9289048535        5.8528929821
  C        37.5532935228       30.8417923370        5.1527820013
  C        36.5848391362       31.1517007959        4.1853666326
  C        35.9516579896       30.1358973049        3.4746074115
  C        36.2716634544       28.7840275477        3.7078857763
  C        37.2094156412       28.4814271645        4.7133049180
  C        37.8464262368       29.4962824823        5.4237919543
  C        35.6588860483       27.6983671049        2.9080089034
  C        35.6962858427       27.7157912531        1.4863106048
  C        36.4093092828       28.7170387080        0.7541062011
  C        25.7002440908        8.6164931931        0.7445191758
  C        25.6869410367        8.6320671211        3.5567767192
  C        38.3304991891       31.9614786554       10.1604177207
  C        37.6127663192       30.8904769940       10.9109389308
  C        36.6783892252       31.2037839972       11.9103056930
  C        36.0658628751       30.1895563669       12.6442638945
  C        36.3727918031       28.8352031874       12.4034342894
  C        37.2887384500       28.5317184212       11.3772396820
  C        37.9029016280       29.5425408525       10.6440906967
  C        35.7539898655       27.7393745772       13.1855034302
  C        35.7446344886       27.7369337230       14.6080194971
  C        36.4310068763       28.7280892597       15.3775572474
  C        46.1352877699       26.6208318634       15.2815037532
  C        46.0873151016       26.5799170427       12.4736108528
  C        22.4617244982        3.2559344686       10.2566552682
  C        23.1580703246        4.3649365511       10.9770820578
  C        24.1638959959        4.0790749638       11.9139204179
  C        24.7940294788        5.1094473069       12.6075733079
  C        24.4383078755        6.4551180378       12.3871235125
  C        23.4556840270        6.7343405408       11.4185595809
  C        22.8210705456        5.7042047991       10.7251661897
  C        25.0699205314        7.5526910529       13.1615769481
  C        25.0601601836        7.5462591678       14.5841399090
  C        24.3624098429        6.5506089445       15.3382461513
  C        26.5593176807       17.8142714680        5.7935404640
  C        25.2600913523       17.8697845097        5.0608036697
  C        24.9907194489       18.9037754624        4.1505451042
  C        23.7841427601       18.9315914084        3.4550416899
  C        22.8129839909       17.9301065385        3.6521631923
  C        23.0768673326       16.9179036282        4.5934446546
  C        24.2856197753       16.8846581362        5.2859627799
  C        21.5461375866       17.9287191950        2.8811022466
  C        21.5555525777       17.9363264270        1.4596635920
  C        22.7670690394       17.8386674247        0.7049738227
  C        34.4385572191       17.1974708992        5.9259959919
  C        35.7338799920       17.1419254541        5.1899272589
  C        35.9177509090       16.1976289050        4.1676233037
  C        37.0970585373       16.1836717546        3.4286806099
  C        38.1227919476       17.1126963275        3.6910338101
  C        37.9405850328       18.0357593193        4.7390261585
  C        36.7590320629       18.0558275099        5.4761164734
  C        39.3752617935       17.1219033955        2.9024698624
  C        39.3721679930       17.1471484503        1.4804572654
  C        38.1672528193       17.2851155141        0.7219461075
  C        20.3125171614       17.9573583404        0.7463758337
  C        20.3205113814       17.9151145173        3.5591430481
  C        34.4776070761       17.2500220085       10.1820036526
  C        35.7779384893       17.1822808630       10.9083386666
  C        35.9898763181       16.2023037107       11.8895703935
  C        37.1740937080       16.1870960190       12.6204916634
  C        38.1751437682       17.1498214552       12.3875922698
  C        37.9692302717       18.1054014447       11.3752881472
  C        36.7819604126       18.1269880353       10.6485698313
  C        39.4215622116       17.1660901769       13.1833985990
  C        39.3962140151       17.1704472649       14.6044066285
  C        38.1785032543       17.2942781622       15.3450073036
  C        35.1028428003       26.6609378313       15.3074665761
  C        35.1701578181       26.6675224481       12.4980164140
  C        26.5692901284       17.8300181444       10.3213633033
  C        25.2524345711       17.8842656519       11.0223879790
  C        24.9833246902       18.9112053847       11.9396321388
  C        23.7658939897       18.9469191571       12.6133069090
  C        22.7897517823       17.9557685597       12.3909997358
  C        23.0523315326       16.9537086764       11.4397949003
  C        24.2707399353       16.9159408949       10.7646259892
  C        21.5253377286       17.9471113475       13.1615408932
  C        21.5442971358       17.9448805810       14.5825322600
  C        22.7613658839       17.8425213030       15.3286122504
  C        14.0453147670       17.8326027206       10.2835406870
  C        15.3524076081       17.8995776537       11.0001819344
  C        15.6106546916       18.9162154513       11.9323651364
  C        16.8214866068       18.9461465736       12.6204397880
  C        17.8050552230       17.9621929688       12.3968982448
  C        17.5527538873       16.9707441274       11.4306308451
  C        16.3413717650       16.9365678355       10.7438266628
  C        19.0712591066       17.9509693362       13.1675578354
  C        19.0630523485       17.9481356722       14.5890999335
  C        17.8519349429       17.8445839217       15.3432122151
  C        46.8053978121       17.2201445039       10.1605838197
  C        45.5179227444       17.1628164684       10.9096749686
  C        45.3116232825       16.1872496143       11.8973822585
  C        44.1318721602       16.1740051047       12.6366145144
  C        43.1287000645       17.1367748469       12.4105995211
  C        43.3327052466       18.0923315586       11.3966727043
  C        44.5127929970       18.1092801640       10.6580786144
  C        41.8761007230       17.1518877529       13.1995068918
  C        41.8800547111       17.1433278539       14.6213713847
  C        43.0884535085       17.2270974073       15.3819391434
  C        20.3064079293       17.9610638867       15.3021602641
  C        20.2968994083       17.9306162150       12.4898278443
  C        46.7848124125       17.2288507366        5.8917334800
  C        45.4801009305       17.1175068515        5.1819649717
  C        45.2636307489       16.1193047131        4.2199208335
  C        44.0749273656       16.0899369985        3.4952574166
  C        43.0738098593       17.0555059751        3.7162918837
  C        43.2795170333       18.0211439101        4.7192992133
  C        44.4693979961       18.0573052077        5.4387353315
  C        41.8293519774       17.0813182014        2.9176808393
  C        41.8563573788       17.1052710629        1.4971283945
  C        43.0771541639       17.2066273397        0.7584349114
  C        46.1531051327       26.6373155723        0.7262493539
  C        46.1619915381       26.6560134221        3.5359027286
  C        14.0393847146       17.8269068397        5.7055548805
  C        15.3530376454       17.8927875167        5.0034322474
  C        15.6262336571       18.9168485351        4.0848094790
  C        16.8503384134       18.9520663598        3.4220213540
  C        17.8256949433       17.9620247147        3.6534865377
  C        17.5577936172       16.9629493286        4.6063026354
  C        16.3359352770       16.9276840941        5.2731850580
  C        19.0923234676       17.9449141502        2.8866128111
  C        19.0743237440       17.9432673184        1.4655533721
  C        17.8573754208       17.8420620307        0.7193874334
  C        28.8048519344       14.0822305091       10.3576682590
  C        28.1962662749       12.9126559968       11.0543689731
  C        28.9233302610       12.1795186384       12.0035330368
  C        28.3277067501       11.1068578747       12.6627117057
  C        26.9916981994       10.7442294300       12.3971373239
  C        26.2859417388       11.4595202056       11.4128185995
  C        26.8789060245       12.5322546223       10.7520998762
  C        26.3253786771        9.6640115884       13.1608765863
  C        26.3138796894        9.6880528775       14.5821031292
  C        26.8248680905       10.7965009334       15.3294034000
  C        32.1776097260       21.2483711913       10.1475970029
  C        32.7712000131       22.4152782611       10.8664693305
  C        32.0147263313       23.1028278962       11.8280549361
  C        32.5808625245       24.1436558782       12.5576330377
  C        33.9201778085       24.5251856732       12.3477224389
  C        34.6601133239       23.8561569674       11.3545839917
  C        34.0957367525       22.8100310446       10.6263700691
  C        34.5432475274       25.6014275382       13.1525257993
  C        34.5166412433       25.5773033261       14.5744181966
  C        33.9952882866       24.4655220716       15.3089586033
  C        25.6989998042        8.6119515389       15.2996933927
  C        25.6870570751        8.6144655384       12.4867824012
  C        32.0818616249       21.2076284184        5.8863637258
  C        32.6480997182       22.3737765826        5.1461111417
  C        31.9045006823       23.0271880147        4.1506469069
  C        32.4733781069       24.0655127264        3.4148072654
  C        33.7981310263       24.4815517136        3.6562205489
  C        34.5223493348       23.8412678109        4.6805206019
  C        33.9598136554       22.7982490799        5.4109617425
  C        34.4340116098       25.5688225785        2.8747984147
  C        34.4585686552       25.5616005086        1.4525259813
  C        33.9664299171       24.4588952896        0.6856199478
  C        40.6196396607       17.1178866621        0.7728838087
  C        40.5985835510       17.1058439665        3.5819261904
  C        28.7331719164       14.0614185170        5.8207586583
  C        28.1241743922       12.9160321573        5.0825403960
  C        28.8687368594       12.2013882784        4.1311123920
  C        28.2866124242       11.1487097822        3.4289777759
  C        26.9450823140       10.7814501288        3.6559872640
  C        26.2178217141       11.4812745886        4.6370699525
  C        26.7973257920       12.5363209015        5.3391730447
  C        26.3050531870        9.6916220778        2.8807225391
  C        26.3058308510        9.7019029398        1.4589860673
  C        26.8198093696       10.8036335035        0.7054833634
  C        18.1353235315        3.1808801863       10.3171412841
  C        17.4058554677        4.2780537870       11.0157224361
  C        16.3902789412        3.9995308543       11.9433345576
  C        15.7424172094        5.0394235394       12.6068350397
  C        16.0940197011        6.3831904240       12.3670098547
  C        17.0832176096        6.6528468036       11.4030965557
  C        17.7324650443        5.6156075670       10.7380422641
  C        15.4696533630        7.4908378137       13.1300672140
  C        15.4851688847        7.4902693176       14.5517715636
  C        16.1868881890        6.4967722834       15.3049413384
  C        42.9457698940       31.8594668811       10.0728883342
  C        43.6460494577       30.7718120208       10.8167944502
  C        44.5916543275       31.0930918712       11.8028255246
  C        45.1972920163       30.0874986196       12.5504581438
  C        44.8707282439       28.7344434014       12.3356907452
  C        43.9448566276       28.4201712714       11.3224933622
  C        43.3361073625       29.4253346518       10.5744379433
  C        45.4882555833       27.6551270354       13.1388753545
  C        45.4926638624       27.6809854265       14.5605587627
  C        44.8056876448       28.6891112733       15.3071745740
  C        14.8562451486        8.5627875130       15.2641320914
  C        14.8741216387        8.5624468201       12.4514673284
  C        42.9464467756       31.9615601890        5.8089765206
  C        43.6916361863       30.8854780979        5.0955809023
  C        44.6562457044       31.1914072622        4.1232858390
  C        45.2777109849       30.1718259903        3.4055349854
  C        44.9538773994       28.8214971434        3.6430897997
  C        44.0203586791       28.5238252099        4.6538424027
  C        43.3921435648       29.5405709885        5.3660777864
  C        45.5628576703       27.7240938894        2.8578373719
  C        45.5332632930       27.7175363487        1.4365424104
  C        44.8270034529       28.7077888690        0.6835655622
  C        35.0756010235       26.6517802555        0.7528516940
  C        35.0456910969       26.6244190975        3.5632339168
  C        18.1485053203        3.2468609486        5.7066384647
  C        17.4298256846        4.3436695533        4.9973241555
  C        16.4147750189        4.0523422119        4.0736074300
  C        15.7664631224        5.0829406154        3.3981587892
  C        16.1208789977        6.4282083546        3.6210612341
  C        17.1120243937        6.7116234788        4.5785526216
  C        17.7597114730        5.6827578674        5.2583722099
  C        15.4904138563        7.5239124134        2.8486051944
  C        15.4963942441        7.5073223387        1.4274682850
  C        16.1931988665        6.5056586036        0.6807558836
  H        10.6725964578       12.4666038357        3.9036158302
  H        11.6946479313       10.5517202564        2.6617232892
  H        15.3907664106       11.1669996198        4.7735297522
  H        14.3502540982       13.0697843031        6.0189654100
  H        13.3759731922       11.6309864450        1.2011743294
  H        50.3225979445       22.7490988404        3.9874810630
  H        49.3192989795       24.6234568100        2.6813225508
  H        45.6412165336       24.1602541352        4.8628962866
  H        46.6621968422       22.2894402122        6.1711764169
  H        47.6291648000       23.5757407098        1.2462730467
  H        14.8715470223        8.5878677290        4.6084780531
  H        50.2868964504       22.7032417857       12.0598797187
  H        49.2686686068       24.5759776328       13.3600219448
  H        45.6095063328       24.1080460600       11.1468976352
  H        46.6517963735       22.2529151750        9.8326040392
  H        47.6070631493       23.5516189086       14.7969007362
  H        40.6592608309       17.1478770960       11.4315985427
  H        48.6868596332       14.0947661295        7.7999376688
  H        10.6811051477       12.4671251394       12.0938355593
  H        11.6890517387       10.5250538482       13.2975527192
  H        15.3923542263       11.1571638107       11.2043611392
  H        14.3640245641       13.0857535947        9.9889944423
  H        13.3753817903       11.6217906244       14.7529767600
  H        47.9300118178       14.2176706539        9.7108154979
  H        47.7800025327       14.3730213387        6.4948896444
  H        49.0827944839       18.5523398376       10.8672788769
  H        10.4153832942       14.1342585786        7.9987845571
  H        24.4794246072        3.0309523966        3.9118243840
  H        25.6144530190        4.8915994152        2.6827667183
  H        23.2354772148        7.7548745509        4.8371886676
  H        22.1191999481        5.8845292508        6.0680509434
  H        23.8055045485        5.7948975294        1.2539373894
  H        36.3535732405       32.1964546041        3.9917790982
  H        35.2017814923       30.3809266079        2.7256075608
  H        37.4645734592       27.4405941622        4.9016387653
  H        38.5959504924       29.2692138756        6.1783126089
  H        36.9711585237       29.4661117611        1.3043495407
  H        25.7156097061        8.6169185225        4.6448036880
  H        36.4512687314       32.2488588192       12.1084052186
  H        35.3343588629       30.4395581174       13.4095518563
  H        37.5397476166       27.4906895112       11.1847758343
  H        38.6303021300       29.3116806220        9.8695780976
  H        37.0104622026       29.4853830140       14.8572566703
  H        46.1084771833       26.5871287823       11.3855713205
  H        44.6682749765       35.1161278938        7.8139689632
  H        24.4423894581        3.0408904223       12.0801369868
  H        25.5772963401        4.8809404412       13.3272095548
  H        23.1695895766        7.7687637354       11.2393389744
  H        22.0465868002        5.9167688896        9.9918228039
  H        23.7920525352        5.7956122539       14.8049505488
  H        44.9537338616       34.3903017370        9.6951131470
  H        44.9018450686       34.2068585695        6.4905682578
  H        40.6662298268       33.2090071579       10.8531594822
  H        23.1504354698        1.9576686807        8.0048235751
  H        25.7323680798       19.6868044047        4.0085246396
  H        23.5765259713       19.7383675351        2.7552810730
  H        22.3353680113       16.1374501931        4.7516678213
  H        24.5033215215       16.0927745009        5.9989860031
  H        23.7065651941       17.7281976766        1.2387705604
  H        35.1164780642       15.4924084233        3.9589129465
  H        37.2386533318       15.4444115906        2.6434507576
  H        38.7247084483       18.7611666135        4.9458110114
  H        36.6015315761       18.7846776083        6.2678561280
  H        37.2277119320       17.4161801298        1.2511457042
  H        20.3227709308       17.9337773061        4.6475234456
  H        35.2079959763       15.4692511049       12.0743067634
  H        37.3378465978       15.4251546642       13.3793415585
  H        38.7362642631       18.8550923890       11.1924402364
  H        36.6003257354       18.8823436126        9.8877167855
  H        37.2476088775       17.4310873947       14.8018966297
  H        35.1572238788       26.6898499135       11.4099676617
  H        28.5091095000       21.0993553176        7.9885628428
  H        25.7412026771       19.6741400155       12.1030979757
  H        23.5549127445       19.7468301713       13.3198948900
  H        22.3048238732       16.1828651437       11.2637774677
  H        24.4913584892       16.1315428477       10.0444853248
  H        23.6963270880       17.7340116660       14.7869643775
  H        29.0199281310       21.7143728691        9.7591049653
  H        29.1196769468       21.7530164200        6.5900266485
  H        32.0839218569       18.5878797103       10.9833759755
  H        27.3607933692       19.0873061860        8.0779770561
  H        14.8515070809       19.6762963553       12.1026316202
  H        17.0201129465       19.7384751004       13.3389734902
  H        18.3040007063       16.2044493157       11.2508703276
  H        16.1316600889       16.1586200838       10.0136019479
  H        16.9122537185       17.7331011432       14.8101643545
  H        46.0926209980       15.4525118555       12.0784501582
  H        43.9719092252       15.4090253172       13.3932167022
  H        42.5663699008       18.8437306679       11.2179798158
  H        44.6863227301       18.8611809735        9.8918504803
  H        44.0313226939       17.3402705947       14.8545563756
  H        20.2950217503       17.9539457773       11.4015593420
  H        46.0430939436       15.3823067584        4.0406668095
  H        43.9096220234       15.3166336141        2.7482409879
  H        42.5103310237       18.7699045585        4.8965710181
  H        44.6505738849       18.8227159220        6.1892900563
  H        44.0114469111       17.3028712955        1.3038504081
  H        46.1986615213       26.6824600718        4.6233556919
  H        52.7409585030       21.0624952494        8.1946185096
  H        14.8701823954       19.6788797701        3.9091383151
  H        17.0649845303       19.7496931707        2.7140826526
  H        18.3035005767       16.1919788780        4.7889582431
  H        16.1116399248       16.1463582167        5.9952726411
  H        16.9218241055       17.7287077403        1.2589094178
  H        52.3215465884       21.6732830000        6.2949222819
  H        52.0127551612       21.7019594390        9.4953534908
  H        49.0665720953       18.6074806808        5.2046652444
  H        13.2470345715       19.0167132855        7.9756073727
  H        29.9512863914       12.4664576625       12.2133638545
  H        28.8935941724       10.5369345218       13.3964576292
  H        25.2533994710       11.1897633313       11.2007434961
  H        26.3318745536       13.1056758111       10.0077398733
  H        27.1974400201       11.6621165593       14.7898714189
  H        30.9862761919       22.7950108713       11.9998087638
  H        31.9886192394       24.6751804064       13.2992887449
  H        35.6971205148       24.1400492964       11.1872760689
  H        34.6734511596       22.2678793825        9.8812545645
  H        33.6441769774       23.5960874909       14.7603415345
  H        25.7166584598        8.5964366471       11.3987507475
  H        30.8841264907       22.7010914624        3.9597543844
  H        31.8899314591       24.5723391823        2.6491319795
  H        35.5478073379       24.1496727916        4.8732528101
  H        34.5268582144       22.2823093576        6.1822172230
  H        33.5924849492       23.5841870397        1.2099839326
  H        40.5911202694       17.0589844413        4.6692093335
  H        32.5307219178       14.1426719822        8.2485257872
  H        29.9075293608       12.4770604045        3.9631885974
  H        28.8712119188       10.5911889279        2.7003066245
  H        25.1803661619       11.2087409697        4.8198072426
  H        26.2331011129       13.0922905709        6.0843660550
  H        27.1869644337       11.6750541410        1.2396094862
  H        33.2876545453       14.1793222805        6.4198503952
  H        33.4105097375       14.3867641723        9.6182583331
  H        32.1702755119       18.5988502482        5.1820005315
  H        30.2352620855       14.1924627496        8.0713718439
  H        16.1184731191        2.9629702802       12.1297939493
  H        14.9530535803        4.8199135629       13.3225508057
  H        17.3653222966        7.6857841409       11.2098465203
  H        18.5143392058        5.8183342895       10.0100398420
  H        16.7534263458        5.7394291585       14.7714272524
  H        44.8280404672       32.1401481228       11.9770087145
  H        45.9371972352       30.3411954465       13.3063819641
  H        43.6820186556       27.3781271865       11.1524302136
  H        42.5994990481       29.1899732835        9.8097722227
  H        44.2303159594       29.4368675878       14.7688801740
  H        14.8500811983        8.5454919214       11.3632558497
  H        44.8998440763       32.2340782012        3.9318675914
  H        46.0246331549       30.4130290581        2.6523097517
  H        43.7633037599       27.4841040045        4.8453441209
  H        42.6456231069       29.3177090976        6.1244838318
  H        44.2685275860       29.4707122454        1.2181279938
  H        35.0006884370       26.6340337089        4.6506653086
  H        36.6051908887       35.1341306628        8.1805516927
  H        16.1438847847        3.0127333038        3.9037631368
  H        14.9742511461        4.8560328567        2.6879683892
  H        17.3952357653        7.7471332603        4.7556551522
  H        18.5423919634        5.8932304406        5.9833391602
  H        16.7646801874        5.7554499162        1.2191906773
  H        36.2788902549       34.4822252698        6.2734226144
  H        36.3810002017       34.2090088542        9.4994030579
  H        40.5790909840       33.2016709321        5.1543970258
  H        17.4709009129        1.9472129888        7.9740623332
  H        29.2560876122       19.6584114988       12.5476540160
  H        29.8893301449       19.4669629706        3.2805925670
  H        30.7682513893       15.2916052209        3.8701711199
  H        30.8949812191       15.4817568829       12.3339735666
  H        28.0578583007       18.4992504402       14.6095330712
  H        29.0321812169       15.6949703719       14.4746503557
  H        31.5188850791       19.6792715550        1.7623353872
  H        29.3834716197       16.0601675264        1.3706352898
  H        32.4754395065       17.0503798101       13.5443650731
  H        18.8534628045        0.8690211000       12.3352222337
  H        40.5281423976       35.2290070668        3.9521641763
  H        42.3235559065       34.4184700996        3.5908254625
  H        22.0878540876        0.6918212344       12.3516790328
  H        11.5966344817       18.7131449773       12.3826668330
  H        52.2644877925       18.4311944060        3.6772305292
  H        49.2551480469       16.4770279048        3.5845048733
  H        10.1503907144       15.7981946000       12.2926371737
  H        50.8496184408       17.6924341954        3.9542124058
  H        10.0459880228       17.3945104567       12.0520246657
  H        20.2147280566        0.0022232215       12.0420084718
  H        39.1836867373       36.1243307477        3.6863146925
 Ni        31.1180962092       17.4209321669        2.8327287802
 Ni        31.0738941607       16.7158705195       -0.4954938361
 Ni        29.7610478556       18.5020831963        0.4129550807
 Ni        30.1870665650       17.5712366601       13.1572139410
  O        10.6498949671       14.3651139507        5.4857745866
  O        12.6131046028       14.6573658189        6.5838409146
  O        49.1479351429       16.8459887882        7.9897474211
  O        50.3501090769       20.9364372503        5.6483280428
  O        48.3484722002       20.5933528492        6.6659523260
  O        11.0511564438       17.0540553152        6.5005535866
  O        50.3207753919       20.8817851228       10.4068825794
  O        48.3466750288       20.5868010262        9.3270830248
  O        49.5434298678       18.2485049579       10.0684525902
  O        12.3588158047       18.6246360210        7.9997448282
  O        48.6932697204       14.1484709015        6.7512991896
  O         8.2097858845       14.2103532802        9.3225591685
  O        10.7353052870       14.5066898696       10.6644112738
  O        12.5717643570       14.5827116252        9.3285629279
  O        22.8444804917        2.0431817094        5.4870913479
  O        21.6053178448        3.5922021482        6.5897882670
  O        42.0579989325       34.1371914781        7.9790485115
  O        37.9812457982       33.1377107084        5.5727735040
  O        39.2171648011       31.5753447942        6.6657421850
  O        20.3084686605        1.0395680440        6.5020288810
  O        38.0247396290       33.1858298387       10.4153617351
  O        39.2182901266       31.5830076899        9.3276094080
  O        40.6522428594       33.7692094148       10.0601910095
  O        18.2556937342        1.3761964270        7.9968073720
  O        44.6222107840       35.1005615423        6.7587666969
  O        24.2053690310        0.0000010997        9.3207923396
  O        22.7531701855        2.0580463394       10.5838488395
  O        21.6244266851        3.5960889069        9.3425640110
  O        27.4534043586       18.6852346959        5.4949428974
  O        26.6921816519       16.9103264012        6.6768291710
  O        30.6591290492       19.4096568510        8.0631400556
  O        33.5840762351       16.2843732934        5.6702083797
  O        34.2670727310       18.1769658218        6.7356961180
  O        29.5660249771       17.0713097340        6.5760358276
  O        33.6211460503       16.3321636403       10.4085430555
  O        34.3052150751       18.2502113477        9.4040169668
  O        31.6507981141       18.3151898406       10.1568407288
  O        30.3254492468       15.1594575349        8.0750193120
  O        28.5459361375       21.0343680691        6.9103722461
  O        28.5135347164       20.9607045518        9.4097102500
  O        27.4552423214       18.6794162975       10.6583793266
  O        26.6924656954       16.9277369763        9.4144536722
  O        13.1466565735       18.6938871830       10.5862872774
  O        13.9183889598       16.9160768697        9.4043045281
  O        50.5957565774       19.3503716212        8.0206608252
  O        47.6832432499       16.3271855100       10.4173053124
  O        46.9518882058       18.1759001279        9.3245976576
  O        11.0688979587       17.0159118884        9.4897085861
  O        47.6770352327       16.3352785186        5.6536057821
  O        46.9274453614       18.2354639807        6.6646059190
  O        49.5688686446       18.3178253383        5.9823049913
  O        10.3184568651       15.1001525536        7.9971089458
  O        52.6706832187       21.0280193022        9.2418333123
  O        12.1468344192       20.8913515499        6.6731905926
  O        13.1056436712       18.6141125439        5.3260231905
  O        13.9552013481       16.9861058613        6.6654815453
  O        29.9948609985       14.4281667293       10.6596050279
  O        28.0748127352       14.6576882755        9.4797147654
  O        32.1092838629       16.9082911484        8.0593907341
  O        30.9648862634       20.9575334074       10.4062046511
  O        32.9466115118       20.6070096182        9.3429059698
  O        29.5595583907       17.0804774482        9.5696656991
  O        30.8586891823       20.8922712955        5.6622837856
  O        32.8744770066       20.5822380843        6.6654231777
  O        31.6059408934       18.2550961280        5.8941420338
  O        28.2406292630       18.6772631428        8.0725689136
  O        32.4972287897       14.2112645942        9.3251243866
  O        32.4056664516       14.2133412764        6.8263439108
  O        29.9093502424       14.4326860190        5.4885566752
  O        28.0353298983       14.5885908225        6.7520998055
  O        17.8892338415        1.9665507111       10.6627731156
  O        18.9561903636        3.5271616622        9.4080289399
  O        39.1686381328       34.1386699241        7.9971494793
  O        43.2802083080       33.0589269049       10.3316827135
  O        42.0343492372       31.5065217716        9.2415749564
  O        20.3175988080        1.0365748176        9.4802516463
  O        43.2760437170       33.1826208344        5.5749420672
  O        42.0052202512       31.5841454568        6.5830148893
  O        40.5790642190       33.7749887909        5.9360697328
  O        22.3672607607        1.3845277917        7.9979481353
  O        36.6727597327       35.0997440762        9.2332527402
  O        16.4456243285        0.0643013845        6.6683298028
  O        17.9363860493        2.0432639970        5.3264352728
  O        18.9190220674        3.5931337436        6.6658854731
  O        29.2783525875       19.4993410010        4.0900091352
  O        29.7820308663       19.0607151443       11.9878974019
  O        31.3514116448       16.0400836659        4.0936946579
  O        31.3032991247       16.2714346828       11.9231234097
  O        30.1179677819       16.6843658563        1.2442668276
  O        29.9454184096       15.8149021266       14.1678090222
  O        32.0214602334       17.6597331006       14.1617448896
  O        30.7509461389       19.1285121585        1.9871159603
  O        29.0187180019       18.6234659889       14.6757864526
  O        39.4568532550       35.2437579997        4.0019669276
  O        19.1414104130        0.0045559776       11.9905434095
  O        41.9695610571       35.1726870285        4.0872278583
  O        21.6912348037       -0.0693784309       11.8958547079
  O        51.3647366874       18.6143417232        4.0053625178
  O        10.7509422752       18.7473353525       11.9050072919
  O        50.0796773480       16.4128084893        4.0916522663
  O         9.5245082056       16.4830570415       11.9912400460
 Zr         9.2960269644       16.0528026974        6.1822586724
 Zr        49.8351191008       16.0068222887        9.7466191185
 Zr        22.0733113569        0.0294762881        6.1891242380
 Zr        42.4609217785       35.1532662277        9.8009304423
 Zr        29.5773253418       19.1142621092        6.3361605814
 Zr        29.5711218023       19.1713415838        9.8692961724
 Zr        11.0367805244       19.0523701489        9.8276227623
 Zr        11.0427333423       19.1551315883        6.2514468906
 Zr        31.3603074326       16.0917189137        9.8478741866
 Zr        31.3997585996       16.0055632269        6.2687770711
 Zr        18.6010106420       -0.0017293152        9.7634257019
 Zr        18.5066523344       -0.0077784595        6.2136378449
 Zr        12.2999660027       16.3233285013        7.9906546191
 Zr        48.6153906449       18.8329084557        8.0102491780
 Zr        20.3150581061        2.4731493549        7.9907281587
 Zr        40.6431231876       32.6866035971        7.9781434803
 Zr        28.3395078860       16.3419916314        8.0862927335
 Zr        32.6399784981       18.8497472883        8.0686492742
  H        28.4239474334       19.0777754553        3.8776130011
