     571
 i =      140, E =     -4761.5957572090
  C        11.8584106903       14.0534687776        5.7416291807
  C        12.4558736626       12.8903434661        5.0233581791
  C        11.7044180834       12.1720384139        4.0810643957
  C        12.2807255617       11.1097968155        3.3886775888
  C        13.6210109030       10.7393400262        3.6170026442
  C        14.3538472235       11.4421651185        4.5912759718
  C        13.7810023105       12.5071254314        5.2828451895
  C        14.2606194184        9.6487645497        2.8435569175
  C        14.2560362095        9.6567112358        1.4218414822
  C        13.7428403349       10.7587933915        0.6678888941
  C        49.1263717056       21.2334073190        5.8798472171
  C        48.5494628310       22.4011304851        5.1526460442
  C        49.2996539891       23.0687969413        4.1719999097
  C        48.7326730940       24.1078550270        3.4387567245
  C        47.4019408886       24.5090485850        3.6670192371
  C        46.6707309819       23.8597078947        4.6800301268
  C        47.2332299379       22.8148504111        5.4094212991
  C        46.7718200193       25.5868239933        2.8697570576
  C        46.7609483748       25.5572856838        1.4479991228
  C        47.2607988792       24.4421350061        0.7045418606
  C        14.8600202873        8.5703854417        0.7085792865
  C        14.8913402081        8.5967541785        3.5201872409
  C        49.1127896626       21.2034341200       10.1454178820
  C        48.5273240123       22.3646538699       10.8726255513
  C        49.2667090381       23.0258170408       11.8651320634
  C        48.6902839991       24.0602925693       12.5966049282
  C        47.3596486726       24.4565408624       12.3587414802
  C        46.6389853874       23.8110703250       11.3357702865
  C        47.2126258899       22.7752064528       10.6039876032
  C        46.7212670896       25.5315837983       13.1497190066
  C        46.7331657857       25.5280726025       14.5714120449
  C        47.2485202062       24.4288164766       15.3277817601
  C        40.6168124363       17.1082635040       15.3102668324
  C        40.6243898617       17.1096062130       12.5005081416
  C        11.8825854883       14.0864137441       10.2854583061
  C        12.4716635475       12.9102116431       10.9894407740
  C        11.7142343951       12.1775606455       11.9160388951
  C        12.2806420782       11.0950257152       12.5845143272
  C        13.6191870543       10.7206397713       12.3522026348
  C        14.3569572416       11.4354761191       11.3906871272
  C        13.7916914542       12.5167042710       10.7179553325
  C        14.2528571156        9.6240051387       13.1227166612
  C        14.2519372715        9.6441752744       14.5445641365
  C        13.7421576308       10.7531685628       15.2916317430
  C        22.5098292905        3.2438202012        5.7510923678
  C        23.2203757557        4.3482598673        5.0462229288
  C        24.2157443644        4.0665446912        4.0989049203
  C        24.8408920848        5.1047754348        3.4133045922
  C        24.4860924518        6.4468285497        3.6547643459
  C        23.5176146066        6.7200824915        4.6379005083
  C        22.8880414598        5.6836623074        5.3221554281
  C        25.0950908078        7.5519394008        2.8799365305
  C        25.0766718008        7.5439955921        1.4583150240
  C        24.3753967871        6.5463995496        0.7093289521
  C        38.2979461617       31.9292616601        5.8524414366
  C        37.5553328588       30.8421579156        5.1511035298
  C        36.5881802097       31.1519230188        4.1823946898
  C        35.9562044543       30.1359601998        3.4708328127
  C        36.2763820827       28.7843092117        3.7048205503
  C        37.2131200164       28.4818595491        4.7111896456
  C        37.8489104412       29.4968457361        5.4224004422
  C        35.6643030973       27.6980415238        2.9055748107
  C        35.7021719959       27.7136644922        1.4839485828
  C        36.4146175245       28.7146119468        0.7508421504
  C        25.7081883536        8.6111382325        0.7413778641
  C        25.6892362339        8.6265569829        3.5533358854
  C        38.3304153664       31.9610598991       10.1602137650
  C        37.6131801692       30.8888188031       10.9097997038
  C        36.6779331872       31.1998417894       11.9090355034
  C        36.0668686285       30.1840026300       12.6421027953
  C        36.3761645903       28.8302194085       12.4007315835
  C        37.2925854883       28.5289933537       11.3743093041
  C        37.9052358554       29.5414127815       10.6420584700
  C        35.7598054297       27.7331577875       13.1831779315
  C        35.7510280710       27.7315973012       14.6057219099
  C        36.4363216919       28.7242769778       15.3742667269
  C        46.1353217180       26.6208127579       15.2815127004
  C        46.0872693985       26.5798704160       12.4736223181
  C        22.4629295122        3.2558345943       10.2560252009
  C        23.1621961540        4.3641099090       10.9748242861
  C        24.1697463372        4.0767762726       11.9094151292
  C        24.8028469671        5.1061381810       12.6018450910
  C        24.4483906646        6.4523136917       12.3825582611
  C        23.4642747513        6.7330578917       11.4159744643
  C        22.8267584956        5.7039031451       10.7236784523
  C        25.0818306066        7.5485934948       13.1574319821
  C        25.0706552886        7.5416514360       14.5799309390
  C        24.3705090420        6.5466013682       15.3326136385
  C        26.5548880466       17.8172508368        5.7862461942
  C        25.2565020993       17.8743523570        5.0557503170
  C        24.9851114901       18.9087800278        4.1464798508
  C        23.7780535685       18.9352876837        3.4521629434
  C        22.8084108890       17.9324264781        3.6498282460
  C        23.0737531507       16.9204653745        4.5909189803
  C        24.2831152590       16.8880143789        5.2818638771
  C        21.5421858795       17.9290978890        2.8783321227
  C        21.5534163679       17.9353794050        1.4570579242
  C        22.7657639995       17.8352996595        0.7042027419
  C        34.4417502696       17.1923349110        5.9224495364
  C        35.7378816563       17.1402726391        5.1877445364
  C        35.9234145926       16.1974214002        4.1641280532
  C        37.1018196110       16.1869642432        3.4236305388
  C        38.1264512147       17.1180851369        3.6843988332
  C        37.9430835456       18.0391410220        4.7342696280
  C        36.7622325635       18.0559060050        5.4730059582
  C        39.3767491179       17.1305802879        2.8913364778
  C        39.3673811999       17.1457402361        1.4687244227
  C        38.1594463744       17.2788590133        0.7142675963
  C        20.3112186192       17.9566939662        0.7425858800
  C        20.3161354564       17.9149998921        3.5552848856
  C        34.4374316306       17.2408262115       10.1902468773
  C        35.7337073285       17.1442645332       10.9167424301
  C        35.9254038665       16.1872889293       11.9243179134
  C        37.1167133833       16.1584489707       12.6450731314
  C        38.1438740660       17.0854039174       12.3795678164
  C        37.9564382668       18.0152824544       11.3392515083
  C        36.7652915792       18.0498107832       10.6215528218
  C        39.3945979794       17.1044916071       13.1699899961
  C        39.3765901826       17.1326465720       14.5916110022
  C        38.1633355671       17.2714537086       15.3372536577
  C        35.1106024058       26.6555185242       15.3062864301
  C        35.1776480024       26.6595484514       12.4968396598
  C        26.5741516867       17.8295296434       10.3218903008
  C        25.2585403114       17.8832073640       11.0248844082
  C        24.9942206638       18.9042835443       11.9500329702
  C        23.7756664968       18.9416128943       12.6217077295
  C        22.7942995819       17.9574363422       12.3908121709
  C        23.0532753530       16.9604636742       11.4331943619
  C        24.2722583124       16.9214710000       10.7594098071
  C        21.5287749872       17.9489606378       13.1594393471
  C        21.5457748534       17.9440526440       14.5804581581
  C        22.7616826793       17.8385132086       15.3279090465
  C        14.0458566131       17.8331562203       10.2826995378
  C        15.3541247060       17.9014463609       10.9974245117
  C        15.6138373743       18.9197766203       11.9273249535
  C        16.8255487811       18.9505908489       12.6139079591
  C        17.8084619708       17.9657968627       12.3912414237
  C        17.5548949773       16.9728866711       11.4268440014
  C        16.3426797656       16.9379129997       10.7414505152
  C        19.0744247269       17.9539660560       13.1625755576
  C        19.0645074337       17.9494059188       14.5840723947
  C        17.8523638832       17.8460981855       15.3365854064
  C        46.8006902225       17.2161214394       10.1571247783
  C        45.5063058534       17.1462847140       10.8961237982
  C        45.2999106628       16.1651193279       11.8786744016
  C        44.1151893227       16.1392390037       12.6102555083
  C        43.1045760013       17.0941647353       12.3828826718
  C        43.3071899552       18.0530459860       11.3714696519
  C        44.4928282195       18.0830868370       10.6407111832
  C        41.8514677177       17.1029546883       13.1741762488
  C        41.8613532161       17.1123588257       14.5966500948
  C        43.0727131284       17.2092054722       15.3510791637
  C        20.3069844940       17.9608411893       15.2984642159
  C        20.3008883861       17.9343523929       12.4863208373
  C        46.7850487450       17.2325310833        5.8858932840
  C        45.4844417245       17.1294941114        5.1654661661
  C        45.2682610041       16.1344471488        4.1997447799
  C        44.0812944856       16.1085430004        3.4714930948
  C        43.0801235296       17.0749382242        3.6906239101
  C        43.2876779456       18.0406281346        4.6935601714
  C        44.4754104092       18.0727972901        5.4173450291
  C        41.8320669772       17.0968244496        2.8959239144
  C        41.8517180395       17.1082509169        1.4745334097
  C        43.0682205319       17.2044703040        0.7281884877
  C        46.1531249318       26.6372719175        0.7262595754
  C        46.1619103843       26.6559325613        3.5359079081
  C        14.0387381088       17.8265307191        5.7050603145
  C        15.3514720510       17.8917295492        5.0012310128
  C        15.6232946164       18.9154600030        4.0818724251
  C        16.8464424759       18.9505188914        3.4173647676
  C        17.8220320786       17.9606116939        3.6480627847
  C        17.5553276596       16.9615229506        4.6012082206
  C        16.3344141019       16.9264184231        5.2697617044
  C        19.0887065178       17.9441844856        2.8814189976
  C        19.0721917516       17.9428952427        1.4603305811
  C        17.8560384190       17.8427059572        0.7127623355
  C        28.8096095656       14.0845573818       10.3597842757
  C        28.2049297486       12.9136738786       11.0567659466
  C        28.9360238106       12.1745781056       11.9983973508
  C        28.3421503393       11.1003395782       12.6568262597
  C        27.0043349682       10.7406980344       12.3965932767
  C        26.2945807095       11.4612618382       11.4189884415
  C        26.8852227691       12.5363218507       10.7602844833
  C        26.3391461028        9.6586580608       13.1590069478
  C        26.3267683466        9.6820181027       14.5801498697
  C        26.8377641826       10.7898417710       15.3281617425
  C        32.1805969441       21.2458584205       10.1449910048
  C        32.7774966613       22.4068532934       10.8688196916
  C        32.0215366092       23.0964722111       11.8294817392
  C        32.5891129467       24.1365925254       12.5588528150
  C        33.9292018315       24.5157602880       12.3495170150
  C        34.6690570729       23.8439952223       11.3581949933
  C        34.1034724002       22.7982731103       10.6304713329
  C        34.5524427278       25.5931830581       13.1527178887
  C        34.5257923448       25.5702853154       14.5745714885
  C        34.0052953899       24.4587677199       15.3101146580
  C        25.7097157737        8.6064140427       15.2965929118
  C        25.7004170918        8.6101948155       12.4836448439
  C        32.0809099334       21.2113504978        5.8829645666
  C        32.6480882968       22.3785975114        5.1471973542
  C        31.9064985797       23.0315113884        4.1497688268
  C        32.4770756801       24.0684878184        3.4138513505
  C        33.8015247865       24.4840552572        3.6573193450
  C        34.5233706571       23.8453726543        4.6843517072
  C        33.9593679733       22.8031996573        5.4146258057
  C        34.4394034662       25.5688064706        2.8744918116
  C        34.4654033692       25.5588004359        1.4522330118
  C        33.9748135591       24.4543985017        0.6867958851
  C        40.6115497725       17.1107452180        0.7554414642
  C        40.6036153747       17.1231187571        3.5654067432
  C        28.7337692271       14.0540340336        5.8201205514
  C        28.1258244808       12.9081135861        5.0843074497
  C        28.8686480778       12.2006809183        4.1261882632
  C        28.2878924638       11.1477332379        3.4239616201
  C        26.9490425569       10.7740265844        3.6560621328
  C        26.2236875499       11.4665189966        4.6438837441
  C        26.8021895707       12.5212281122        5.3471013223
  C        26.3096641937        9.6856713586        2.8787447622
  C        26.3131138022        9.6963070993        1.4568518812
  C        26.8293233833       10.7976338021        0.7042344399
  C        18.1353786011        3.1808676452       10.3171476329
  C        17.4058113874        4.2780339642       11.0156584201
  C        16.3902836583        3.9995048346       11.9433283281
  C        15.7423822011        5.0393697672       12.6068395099
  C        16.0939495648        6.3831508092       12.3670320687
  C        17.0831164917        6.6528340016       11.4030914663
  C        17.7323958853        5.6156072137       10.7380434330
  C        15.4695226797        7.4907804886       13.1300823389
  C        15.4850816902        7.4902615348       14.5517919142
  C        16.1868123773        6.4967651446       15.3049558800
  C        42.9458353665       31.8594521826       10.0728814314
  C        43.6460918379       30.7717946519       10.8167786287
  C        44.5917228301       31.0930586100       11.8027907218
  C        45.1973556538       30.0874731866       12.5504337916
  C        44.8707677217       28.7344238289       12.3356590053
  C        43.9448883423       28.4201314444       11.3224712251
  C        43.3361697601       29.4253104206       10.5744119587
  C        45.4883037201       27.6551394600       13.1388806850
  C        45.4926786561       27.6809529784       14.5605663921
  C        44.8057604585       28.6891155159       15.3071847386
  C        14.8560989334        8.5627588319       15.2641377629
  C        14.8739723169        8.5623783730       12.4514736825
  C        42.9464287260       31.9615434104        5.8089541846
  C        43.6916544825       30.8854704480        5.0955996728
  C        44.6562428289       31.1913791939        4.1232685958
  C        45.2777099598       30.1717834605        3.4055373922
  C        44.9538841662       28.8214545258        3.6431315435
  C        44.0204232679       28.5237950816        4.6539444308
  C        43.3922195627       29.5405608509        5.3661579740
  C        45.5628433125       27.7240602072        2.8578486243
  C        45.5332788130       27.7174955327        1.4365484093
  C        44.8270781462       28.7077975220        0.6835767042
  C        35.0826295598       26.6482439843        0.7515941072
  C        35.0507880743       26.6250921654        3.5619115169
  C        18.1485481956        3.2468833769        5.7066696137
  C        17.4298689112        4.3436960212        4.9973458636
  C        16.4148279514        4.0523765998        4.0736122706
  C        15.7664502021        5.0829628520        3.3982040012
  C        16.1208699597        6.4282372045        3.6210663754
  C        17.1120293283        6.7116567885        4.5785425573
  C        17.7597735005        5.6827945829        5.2583170894
  C        15.4903515348        7.5239189241        2.8486103724
  C        15.4963111668        7.5073183588        1.4274707446
  C        16.1931689946        6.5056823308        0.6807711279
  H        10.6724949046       12.4666567002        3.9036025005
  H        11.6945031807       10.5517521440        2.6617467732
  H        15.3905604877       11.1668275362        4.7736995931
  H        14.3500725651       13.0696333493        6.0191348385
  H        13.3757450718       11.6309060170        1.2011585914
  H        50.3225028529       22.7490511564        3.9875744806
  H        49.3191892092       24.6233830809        2.6813856095
  H        45.6409888375       24.1599260851        4.8627021938
  H        46.6619806176       22.2891600004        6.1710332541
  H        47.6290591308       23.5756527940        1.2462521319
  H        14.8714576605        8.5878636875        4.6084899652
  H        50.2869200005       22.7033278154       12.0597358654
  H        49.2687154237       24.5761117082       13.3598297384
  H        45.6093175616       24.1077055531       11.1471896371
  H        46.6515294794       22.2525083749        9.8329835055
  H        47.6070287008       23.5515830169       14.7968864695
  H        40.6263697546       17.0661620818       11.4130011050
  H        48.6866829439       14.0949251518        7.7999036687
  H        10.6809555974       12.4671165261       12.0938111811
  H        11.6888589029       10.5250770532       13.2975793984
  H        15.3921245280       11.1569488453       11.2042386591
  H        14.3638003739       13.0855010495        9.9887973468
  H        13.3751061319       11.6216721924       14.7529704410
  H        47.9299469096       14.2178931769        9.7109001483
  H        47.7797579133       14.3724944709        6.4947393802
  H        49.0811057398       18.5514686591       10.8668389815
  H        10.4150222001       14.1343444979        7.9988032735
  H        24.4776418953        3.0276866994        3.9109127206
  H        25.6138597511        4.8862129086        2.6797063376
  H        23.2359775719        7.7532724313        4.8302670760
  H        22.1186830760        5.8850197929        6.0635616167
  H        23.8094007015        5.7915231980        1.2473381505
  H        36.3568570250       32.1966430515        3.9886905482
  H        35.2071158421       30.3806340097        2.7209359793
  H        37.4684033190       27.4410879866        4.8996612376
  H        38.5976450205       29.2701923172        6.1778183961
  H        36.9756800442       29.4648275322        1.3003257418
  H        25.7161975543        8.6109642369        4.6413951438
  H        36.4490683749       32.2443981216       12.1079477992
  H        35.3348902437       30.4323723534       13.4074704291
  H        37.5455626327       27.4885523221       11.1812269973
  H        38.6332340069       29.3122009081        9.8676266449
  H        37.0150822078       29.4815839090       14.8532180744
  H        46.1084145784       26.5870367042       11.3855810608
  H        44.6682931689       35.1161289686        7.8140187906
  H        24.4470809936        3.0381756290       12.0749446043
  H        25.5871027181        4.8763911059       13.3200191055
  H        23.1791199914        7.7678977566       11.2376610031
  H        22.0510734993        5.9177554164        9.9919680457
  H        23.8003067969        5.7922594996       14.7982579834
  H        44.9537643726       34.3902774806        9.6950762941
  H        44.9019938734       34.2069103310        6.4905582612
  H        40.6662722058       33.2089765272       10.8531794568
  H        23.1505132429        1.9576573042        8.0045909326
  H        25.7245844932       19.6935205836        4.0032232111
  H        23.5690572778       19.7415319805        2.7522501608
  H        22.3333108278       16.1390921484        4.7494020694
  H        24.5023923360       16.0954510374        5.9935710920
  H        23.7044593583       17.7228190062        1.2389159040
  H        35.1237762289       15.4908785143        3.9536558826
  H        37.2423517947       15.4493040345        2.6367357703
  H        38.7252689907       18.7666785648        4.9409700652
  H        36.6051993814       18.7845657597        6.2649813965
  H        37.2220573441       17.4190739065        1.2449435776
  H        20.3170868124       17.9340377382        4.6436564150
  H        35.1237296232       15.4862575029       12.1449500405
  H        37.2617881659       15.4142624593       13.4249162105
  H        38.7416370538       18.7383425332       11.1286838676
  H        36.6014131831       18.7874409383        9.8399067946
  H        37.2285131638       17.4059980136       14.8001811444
  H        35.1643448433       26.6808050860       11.4087655439
  H        28.5053313120       21.1051355445        7.9714940672
  H        25.7570957232       19.6603254912       12.1221147049
  H        23.5682100865       19.7375355064       13.3337834774
  H        22.3023295703       16.1944465414       11.2509081701
  H        24.4894588448       16.1410180359       10.0340490090
  H        23.6971617370       17.7278227115       14.7876885251
  H        29.0169623141       21.7163842483        9.7613552521
  H        29.1243899257       21.7517264516        6.5842355225
  H        32.0557821212       18.5931646882       10.9229486572
  H        27.3569732363       19.1018100765        8.0647669755
  H        14.8550272555       19.6802709590       12.0972893366
  H        17.0250984635       19.7439595111       13.3310513471
  H        18.3056246138       16.2059351423       11.2477072034
  H        16.1319308834       16.1587440124       10.0128232179
  H        16.9132707054       17.7357893964       14.8022619296
  H        46.0855837758       15.4362982648       12.0634848331
  H        43.9584669125       15.3710734606       13.3643895788
  H        42.5357812513       18.7984379212       11.1892548915
  H        44.6634953335       18.8391869339        9.8778574818
  H        44.0130149435       17.3183772879       14.8183195945
  H        20.3001797846       17.9594864855       11.3980850523
  H        46.0455805403       15.3947134289        4.0222311771
  H        43.9166229670       15.3351969350        2.7243673883
  H        42.5203383380       18.7915969806        4.8696306333
  H        44.6553190156       18.8371903148        6.1692802791
  H        44.0052223238       17.3090238044        1.2674974425
  H        46.1985462272       26.6823030133        4.6233640261
  H        52.7408820486       21.0624577231        8.1945791389
  H        14.8669742263       19.6774427996        3.9071908058
  H        17.0602317491       19.7480802850        2.7090923287
  H        18.3013091542       16.1906121925        4.7829685616
  H        16.1109491970       16.1452981599        5.9923340586
  H        16.9197740256       17.7298005769        1.2511563806
  H        52.3214138501       21.6732055056        6.2949790363
  H        52.0127079581       21.7019331382        9.4953643570
  H        49.0666417452       18.6077795745        5.2045304735
  H        13.2468152497       19.0168675719        7.9753467474
  H        29.9664173933       12.4566051082       12.2028545647
  H        28.9110204813       10.5270106583       13.3856193320
  H        25.2605992615       11.1937911917       11.2111293767
  H        26.3344510475       13.1138691603       10.0219782438
  H        27.2126024262       11.6551455668       14.7897331142
  H        30.9918903563       22.7925013457       12.0004435899
  H        31.9972636175       24.6693982418       13.2998647903
  H        35.7068112868       24.1255932997       11.1917520437
  H        34.6813352400       22.2547060489        9.8865724591
  H        33.6558640082       23.5875237231       14.7632138033
  H        25.7301634502        8.5931443249       11.3955931892
  H        30.8866931638       22.7054859569        3.9562439245
  H        31.8957476669       24.5738048770        2.6456191198
  H        35.5485723506       24.1536275659        4.8786262943
  H        34.5254104287       22.2879768077        6.1870581945
  H        33.6013041341       23.5796592917        1.2114466687
  H        40.6012027045       17.0828795887        4.6529914918
  H        32.5304415265       14.1379345062        8.2421445142
  H        29.9039438018       12.4836474744        3.9499404940
  H        28.8714708864       10.5963408393        2.6899103826
  H        25.1882906327       11.1890035182        4.8306421064
  H        26.2389691361       13.0716561255        6.0970894752
  H        27.1961734453       11.6693454363        1.2381153806
  H        33.2898929168       14.1801726979        6.4225997895
  H        33.4067376921       14.3806957604        9.6190483807
  H        32.1905260421       18.5801426296        5.1269014121
  H        30.2434648067       14.1848562473        8.0745696724
  H        16.1184851560        2.9629448263       12.1298046266
  H        14.9530184451        4.8198492361       13.3225538959
  H        17.3651887742        7.6857755021       11.2098175224
  H        18.5142588548        5.8183566826       10.0100351649
  H        16.7533781554        5.7394373845       14.7714465807
  H        44.8281281473       32.1401122396       11.9769588314
  H        45.9372915484       30.3411631650       13.3063286645
  H        43.6820684776       27.3780829999       11.1524060515
  H        42.5995715206       29.1899396672        9.8097403657
  H        44.2304082273       29.4368920204       14.7688956736
  H        14.8499095844        8.5454010334       11.3632629607
  H        44.8998350165       32.2340455315        3.9318121029
  H        46.0246171571       30.4129821870        2.6522940438
  H        43.7634059078       27.4840738144        4.8454925006
  H        42.6457487552       29.3177026049        6.1246116409
  H        44.2685987549       29.4707248576        1.2181293581
  H        35.0049504395       26.6364185420        4.6492867344
  H        36.6052391733       35.1341052796        8.1805275004
  H        16.1439228534        3.0127703362        3.9037732690
  H        14.9742347278        4.8560398601        2.6880202904
  H        17.3952598386        7.7471645465        4.7556244214
  H        18.5424668424        5.8932788639        5.9832666592
  H        16.7646510196        5.7554790701        1.2192105371
  H        36.2789984397       34.4822281685        6.2734199576
  H        36.3811196574       34.2089380431        9.4994047129
  H        40.5794315778       33.2019800827        5.1543720826
  H        17.4709508900        1.9473117705        7.9741199083
  H        29.4320263526       19.6959718853       12.5078311084
  H        29.8004611974       19.4655923685        3.2109286048
  H        30.8803311173       15.2288895938        3.8392488394
  H        30.8701320021       15.5725100186       12.3325027966
  H        28.2507658285       18.3356488302       14.5444806739
  H        29.1308019380       15.9437807059       14.5708543704
  H        31.4947986386       19.4774264674        1.7542330503
  H        29.6909941436       16.1726807804        1.3722366956
  H        32.3615125321       17.1098381100       13.5399300978
  H        18.8530592528        0.8688736394       12.3351291210
  H        40.5282259993       35.2289792246        3.9521482307
  H        42.3236366274       34.4185241327        3.5907775416
  H        22.0877064068        0.6913836775       12.3520146666
  H        11.5968018794       18.7129924583       12.3824883353
  H        52.2644969915       18.4311397653        3.6775816926
  H        49.2550820913       16.4767826960        3.5845266394
  H        10.1506936594       15.7981712084       12.2924553801
  H        50.8495334746       17.6924576886        3.9542053357
  H        10.0460605378       17.3946013142       12.0520195610
  H        20.2142019963        0.0020055574       12.0420767568
  H        39.1837487764       36.1243127703        3.6862312744
 Ni        30.9454698984       17.3781010872        2.9076179789
 Ni        31.2036333853       16.8346930109       -0.4116689591
 Ni        30.0137498820       18.7452656184        0.0820632321
 Ni        29.9712877006       17.5451863626       12.9981687877
  O        10.6498366293       14.3651246292        5.4857370532
  O        12.6130673996       14.6574281084        6.5838603550
  O        49.1477305977       16.8460417933        7.9898652257
  O        50.3500517417       20.9364061530        5.6483721986
  O        48.3484558553       20.5932873134        6.6660405388
  O        11.0509032952       17.0540748935        6.5005446680
  O        50.3207569034       20.8817897724       10.4068603655
  O        48.3466242438       20.5867468087        9.3270939123
  O        49.5431189343       18.2484712506       10.0684828763
  O        12.3587010514       18.6245878739        7.9997459912
  O        48.6931749725       14.1485946631        6.7512586783
  O         8.2097286304       14.2104248670        9.3226022810
  O        10.7352308761       14.5067392834       10.6643837887
  O        12.5717116112       14.5827338101        9.3285745045
  O        22.8444054329        2.0428068181        5.4871519064
  O        21.6054600875        3.5922699907        6.5895755294
  O        42.0580245816       34.1372438897        7.9791250032
  O        37.9813487300       33.1380136097        5.5728080319
  O        39.2172352411       31.5755064267        6.6657832486
  O        20.3084782370        1.0396708753        6.5021048884
  O        38.0245374515       33.1853182909       10.4155278880
  O        39.2183941723       31.5830398072        9.3274403132
  O        40.6521538336       33.7691472210       10.0601940572
  O        18.2557048025        1.3762407257        7.9968138007
  O        44.6222030799       35.1005477280        6.7588057621
  O        24.2053816765        0.0000013554        9.3208203383
  O        22.7532008591        2.0578163598       10.5837718942
  O        21.6246276980        3.5962928234        9.3429348304
  O        27.4528944828       18.6867982410        5.4904985829
  O        26.6891501329       16.9140468790        6.6698030806
  O        30.6631179106       19.4129468135        8.0072060658
  O        33.5881815312       16.2799432377        5.6701179570
  O        34.2675246596       18.1761508025        6.7316119500
  O        29.5645147698       17.0714574648        6.5721432431
  O        33.5499146163       16.3419384204       10.4117324060
  O        34.3000305507       18.2408928319        9.4046882159
  O        31.6515451755       18.3184497397       10.0817982449
  O        30.3232561435       15.1529242389        8.0720734990
  O        28.5453873506       21.0359817898        6.9022372011
  O        28.5131393893       20.9631218611        9.4072696160
  O        27.4610830315       18.6781069161       10.6561376023
  O        26.6933022302       16.9269889690        9.4129996654
  O        13.1470024015       18.6938721575       10.5862641392
  O        13.9184200250       16.9160042240        9.4042411839
  O        50.5953328960       19.3502675672        8.0208935829
  O        47.6819562917       16.3273506490       10.4174338905
  O        46.9501745452       18.1755819127        9.3255701000
  O        11.0686098343       17.0160223758        9.4897070531
  O        47.6758697359       16.3358489360        5.6527755791
  O        46.9264468914       18.2356437440        6.6638913512
  O        49.5684887414       18.3177908598        5.9823417619
  O        10.3183262164       15.1002638744        7.9971944399
  O        52.6706894963       21.0280439309        9.2418304733
  O        12.1467832009       20.8912990885        6.6732114961
  O        13.1052400117       18.6141691066        5.3260960255
  O        13.9552614522       16.9861692886        6.6653933718
  O        30.0010741418       14.4334111094       10.6592381467
  O        28.0777346754       14.6577075553        9.4821483086
  O        32.1072698648       16.9115172717        8.0178327206
  O        30.9653771718       20.9583490943       10.3984200852
  O        32.9476692421       20.6040510012        9.3374913057
  O        29.5623465784       17.0871862048        9.5040205385
  O        30.8589914643       20.8953039731        5.6580974220
  O        32.8739476629       20.5831440602        6.6618865758
  O        31.5985914320       18.2487193889        5.8225954200
  O        28.2321080751       18.6817144460        8.0615615973
  O        32.4935392955       14.2128029596        9.3226703591
  O        32.4067780005       14.2105908916        6.8272433718
  O        29.9082524026       14.4268132090        5.4919904071
  O        28.0333295866       14.5865695608        6.7497735686
  O        17.8891919243        1.9665570429       10.6627904203
  O        18.9562175279        3.5271566896        9.4080097625
  O        39.1686201231       34.1386943238        7.9971653055
  O        43.2801440525       33.0589386060       10.3316924668
  O        42.0343708518       31.5064867140        9.2416015289
  O        20.3175798387        1.0365928833        9.4802465889
  O        43.2760628954       33.1826035048        5.5749488485
  O        42.0052101319       31.5841719326        6.5830399782
  O        40.5791450741       33.7751400285        5.9361605223
  O        22.3672842317        1.3845784322        7.9979963344
  O        36.6727794962       35.0997113603        9.2332655489
  O        16.4456280662        0.0643435719        6.6683666188
  O        17.9363956600        2.0432936726        5.3264137477
  O        18.9190475335        3.5931361352        6.6659219847
  O        29.2742595303       19.4941611214        4.0712051086
  O        29.8716366563       19.0589725371       11.9137276578
  O        31.3406627817       16.0360765379        4.1365343631
  O        31.1319195042       16.4197527616       11.9151065717
  O        30.6652491848       16.1966726988        1.3202500881
  O        30.0100524326       16.0482945367       14.1670729120
  O        32.4313981698       17.5097442659       14.4301881496
  O        30.6283175362       19.0349103272        1.8409784485
  O        29.1496964426       18.6848054103       14.4015440268
  O        39.4568805112       35.2437774289        4.0020074591
  O        19.1409365757        0.0043292795       11.9905677296
  O        41.9695333961       35.1726896789        4.0871843949
  O        21.6910473948       -0.0696067230       11.8958794161
  O        51.3646572605       18.6143488889        4.0054088709
  O        10.7509927866       18.7473182578       11.9050418514
  O        50.0796258606       16.4128321342        4.0917101678
  O         9.5247489472       16.4830408694       11.9912127684
 Zr         9.2954497322       16.0528741685        6.1821932662
 Zr        49.8347170860       16.0069849192        9.7468796629
 Zr        22.0733560618        0.0295073678        6.1891502875
 Zr        42.4609338858       35.1532896459        9.8010545869
 Zr        29.5795961085       19.1078822297        6.3153376988
 Zr        29.5697979606       19.1766006271        9.8176512445
 Zr        11.0364572926       19.0524533464        9.8276848452
 Zr        11.0422077031       19.1551544542        6.2517399060
 Zr        31.3499359920       16.1045383691        9.8105892012
 Zr        31.3919314715       15.9961482870        6.2677842347
 Zr        18.6010337556       -0.0017552320        9.7633369790
 Zr        18.5067292516       -0.0075941542        6.2136641038
 Zr        12.2995757630       16.3233057951        7.9906756228
 Zr        48.6143697259       18.8326094738        8.0105867595
 Zr        20.3152619360        2.4732896392        7.9908149018
 Zr        40.6432652632       32.6866700184        7.9782246120
 Zr        28.3209799418       16.3327950968        8.0697838512
 Zr        32.6505633924       18.8569702191        8.0481680194
  H        28.3835582781       19.1195521582        3.9106896759
