     567
 i =      112, E =     -4728.3263235742
  C        11.8586140329       14.0533520959        5.7417107345
  C        12.4561526001       12.8905755626        5.0233195244
  C        11.7045703509       12.1717924686        4.0814409952
  C        12.2809637579       11.1095999830        3.3891068707
  C        13.6214833476       10.7396569774        3.6170047399
  C        14.3545342926       11.4430571900        4.5906960777
  C        13.7816187121       12.5080082472        5.2822057610
  C        14.2610221066        9.6490154000        2.8436076707
  C        14.2562765019        9.6569446401        1.4219121768
  C        13.7430746945       10.7590471838        0.6680005390
  C        49.1268189325       21.2333196178        5.8799025401
  C        48.5500040320       22.4010766582        5.1526574626
  C        49.2999807098       23.0683116493        4.1715454176
  C        48.7330394416       24.1073884663        3.4382772215
  C        47.4026021456       24.5092878994        3.6671025165
  C        46.6717610912       23.8606221583        4.6808451496
  C        47.2342259085       22.8157760450        5.4102641286
  C        46.7723498634       25.5869260414        2.8697706816
  C        46.7613468872       25.5572810039        1.4480059135
  C        47.2612961789       24.4422014211        0.7044969127
  C        14.8602300628        8.5706246199        0.7086370512
  C        14.8919162903        8.5971238201        3.5202490852
  C        49.1131786744       21.2035523267       10.1451766396
  C        48.5278036051       22.3648339077       10.8723613008
  C        49.2670263987       23.0254982443       11.8653342035
  C        48.6906706047       24.0599243364       12.5969399362
  C        47.3603550224       24.4569429479       12.3585292562
  C        46.6399855838       23.8121584707       11.3348855286
  C        47.2135641415       22.7763750335       10.6029545156
  C        46.7218692011       25.5318143300       13.1496383431
  C        46.7336257852       25.5281377150       14.5713427921
  C        47.2490303364       24.4289133431       15.3277323818
  C        40.6184007032       17.0803244235       15.3171123323
  C        40.6325202566       17.1108035326       12.5074071041
  C        11.8828011688       14.0862852134       10.2853294179
  C        12.4722377160       12.9107769691       10.9897672073
  C        11.7148292520       12.1777499069       11.9161238958
  C        12.2814068339       11.0952826871       12.5844988770
  C        13.6201036964       10.7212513331       12.3523627934
  C        14.3579524235       11.4366435121       11.3913197930
  C        13.7925386982       12.5178232432       10.7186526100
  C        14.2537640363        9.6245952982       13.1228249177
  C        14.2523816177        9.6445673223       14.5446606815
  C        13.7425423495       10.7535224290       15.2917482921
  C        22.5129948058        3.2448803458        5.7521911876
  C        23.2296192495        4.3485094458        5.0514757255
  C        24.2247889153        4.0650302639        4.1041390358
  C        24.8555042506        5.1019551819        3.4213593391
  C        24.5075349381        6.4455178799        3.6651376897
  C        23.5402014693        6.7203850196        4.6492190117
  C        22.9047346234        5.6852387038        5.3305533654
  C        25.1182465572        7.5498905306        2.8893382814
  C        25.0908653282        7.5439761202        1.4676090074
  C        24.3859094283        6.5471715914        0.7209319442
  C        38.3009689735       31.9322866673        5.8516561661
  C        37.5654620075       30.8449035569        5.1465759689
  C        36.6036684138       31.1521655446        4.1722663043
  C        35.9811080365       30.1337000685        3.4566891644
  C        36.3062710154       28.7842545240        3.6947984361
  C        37.2375669804       28.4843547638        4.7064434685
  C        37.8642796658       29.5016047380        5.4208754823
  C        35.7018593294       27.6950521566        2.8971004183
  C        35.7387316369       27.7095025862        1.4762267087
  C        36.4506152485       28.7094253849        0.7413613565
  C        25.7166444074        8.6129723014        0.7482226471
  C        25.7186232301        8.6228414206        3.5602426830
  C        38.3304043880       31.9628420602       10.1578671721
  C        37.6111976925       30.8912195219       10.9043671142
  C        36.6832382734       31.2034743205       11.9096342660
  C        36.0730806512       30.1876870974       12.6427696354
  C        36.3764406953       28.8343021935       12.3937704661
  C        37.2834875104       28.5318006182       11.3597403901
  C        37.8960467868       29.5442415285       10.6281109442
  C        35.7633505281       27.7380124028       13.1778373715
  C        35.7706292846       27.7312832944       14.5998873123
  C        36.4654054711       28.7202193022       15.3647172758
  C        46.1355614229       26.6207338688       15.2814929486
  C        46.0879742911       26.5802251087       12.4736022755
  C        22.4623055020        3.2567091017       10.2575908859
  C        23.1584297999        4.3652558836       10.9791061878
  C        24.1627277301        4.0788419792       11.9176450446
  C        24.7933026683        5.1085834381       12.6119791142
  C        24.4403323402        6.4550824146       12.3910107690
  C        23.4589750014        6.7346759216       11.4209877932
  C        22.8238555828        5.7051986040       10.7268405780
  C        25.0736157947        7.5523361853       13.1651643327
  C        25.0686417453        7.5445469650       14.5880967411
  C        24.3731571554        6.5486900985       15.3440792915
  C        26.6078489526       17.8586996781        5.7863813293
  C        25.3034771002       17.9007703198        5.0595647390
  C        25.0323160933       18.9095617693        4.1215523506
  C        23.8210738296       18.9255109053        3.4331350689
  C        22.8427719234       17.9373591335        3.6634964647
  C        23.1085847609       16.9511378316        4.6320810330
  C        24.3231324450       16.9284289504        5.3162090174
  C        21.5705239010       17.9238310074        2.8980694263
  C        21.5728761564       17.9107410802        1.4756917933
  C        22.7799302251       17.7934274488        0.7167309974
  C        34.4258859747       17.2206576469        5.9153559736
  C        35.7197816217       17.1478748927        5.1760367923
  C        35.9287582756       16.1629393987        4.1977862503
  C        37.1098148357       16.1405208412        3.4607976540
  C        38.1167883832       17.0998588330        3.6836482866
  C        37.9132804609       18.0619381666        4.6915100654
  C        36.7289203339       18.0911895884        5.4240623961
  C        39.3707401511       17.1008165536        2.8951175190
  C        39.3639703353       17.1037122931        1.4730464040
  C        38.1555741651       17.2193322570        0.7164322875
  C        20.3271617658       17.9302975248        0.7658638730
  C        20.3457408486       17.9231633177        3.5794895751
  C        34.4440254753       17.2415250755       10.1845380047
  C        35.7439635642       17.1470169431       10.9111813786
  C        35.9491557628       16.1638484670       11.8907550232
  C        37.1384465287       16.1318133632       12.6149419098
  C        38.1521635393       17.0814530273       12.3797024563
  C        37.9524765152       18.0387444909       11.3673202957
  C        36.7623592923       18.0758004017       10.6463071258
  C        39.4014409676       17.0935582784       13.1736323290
  C        39.3801081947       17.1019254967       14.5952840878
  C        38.1636407847       17.2176446713       15.3394936338
  C        35.1341230291       26.6546396053       15.3025464776
  C        35.1677810048       26.6713391160       12.4934913368
  C        26.5685952578       17.8274381601       10.3220279605
  C        25.2541780656       17.8715054715       11.0290413496
  C        24.9870506651       18.8821715325       11.9649993474
  C        23.7706270533       18.9074752047       12.6412490607
  C        22.7909692508       17.9230394873       12.4028324142
  C        23.0517743345       16.9374216823       11.4337958562
  C        24.2697734721       16.9092172637       10.7570591225
  C        21.5273528214       17.9067736150       13.1757627813
  C        21.5505657753       17.9004091822       14.5972357490
  C        22.7687388831       17.7883287488       15.3401960712
  C        14.0463714331       17.8292563272       10.2883248200
  C        15.3510464879       17.8873512694       11.0126269413
  C        15.6076503025       18.8914428534       11.9592536997
  C        16.8167415929       18.9128782111       12.6517807717
  C        17.8030613799       17.9329812575       12.4197338618
  C        17.5513828761       16.9533349370       11.4406798739
  C        16.3417329269       16.9273122542       10.7497540804
  C        19.0715051774       17.9159303736       13.1893162079
  C        19.0690601885       17.9133356972       14.6116859199
  C        17.8612571886       17.8141698934       15.3716552847
  C        46.8024528412       17.2171472704       10.1585331014
  C        45.5102436522       17.1493932604       10.9026052722
  C        45.3054858882       16.1664529442       11.8835889639
  C        44.1223332568       16.1395936199       12.6176887557
  C        43.1121843436       17.0958317428       12.3944037436
  C        43.3141202450       18.0584085723       11.3864571429
  C        44.4981055950       18.0889949798       10.6529503372
  C        41.8581465991       17.0989257721       13.1841342917
  C        41.8646673645       17.0960155246       14.6066425297
  C        43.0740037044       17.1922770664       15.3646220944
  C        20.3152187937       17.9244323941       15.3209762010
  C        20.2961001776       17.8946489725       12.5080577776
  C        46.7839776884       17.2312822228        5.8880283137
  C        45.4804725829       17.1233328713        5.1716877598
  C        45.2621197414       16.1209170243        4.2142593978
  C        44.0736018383       16.0893702267        3.4886394929
  C        43.0732117886       17.0576645382        3.7022640660
  C        43.2824185641       18.0307271873        4.6975429620
  C        44.4720171562       18.0684113761        5.4185280584
  C        41.8255072511       17.0738992072        2.9062597686
  C        41.8480659968       17.0812064576        1.4848244542
  C        43.0662477484       17.1823291125        0.7415538114
  C        46.1533194960       26.6371542858        0.7262534485
  C        46.1623660310       26.6560483750        3.5358875267
  C        14.0442089026       17.8304864906        5.7083302259
  C        15.3638969732       17.9020972610        5.0161987642
  C        15.6385013681       18.9182695333        4.0889651728
  C        16.8668603835       18.9532383268        3.4331744671
  C        17.8473278100       17.9711426750        3.6792253734
  C        17.5794024316       16.9834886458        4.6443148256
  C        16.3531989038       16.9481292839        5.3037829302
  C        19.1143306318       17.9456922112        2.9109911736
  C        19.0915121706       17.9274332997        1.4896028085
  C        17.8721992792       17.8202108277        0.7478474160
  C        28.8120052170       14.0852971884       10.3620439547
  C        28.2045015162       12.9136580512       11.0576731311
  C        28.9311094671       12.1753814128       12.0033557660
  C        28.3334568458       11.1037132383       12.6628237869
  C        26.9958097338       10.7447132076       12.3995180760
  C        26.2908791965       11.4639648002       11.4175460811
  C        26.8854031431       12.5366380102       10.7579846535
  C        26.3285711763        9.6643305878       13.1629723575
  C        26.3192963120        9.6879954271       14.5842979217
  C        26.8246350284       10.7994614179       15.3307357019
  C        32.1550821803       21.2713565828       10.1511931947
  C        32.7451849361       22.4363252448       10.8732578953
  C        32.0002799436       23.1125603775       11.8510057392
  C        32.5757056568       24.1493204986       12.5796760859
  C        33.9109160653       24.5349877281       12.3514138688
  C        34.6378500657       23.8769041857       11.3419199129
  C        34.0646229223       22.8366002335       10.6144199609
  C        34.5466248841       25.6048462270       13.1522994759
  C        34.5395885403       25.5735478656       14.5735213960
  C        34.0283880923       24.4584514806       15.3101229689
  C        25.7088093561        8.6101400861       15.3030467659
  C        25.6893910410        8.6147556582       12.4895324768
  C        32.1288164425       21.2361244840        5.9192857215
  C        32.6980828278       22.3923153547        5.1674095384
  C        31.9551923850       23.0341793949        4.1648289016
  C        32.5248822476       24.0643115712        3.4189998817
  C        33.8489294473       24.4816987264        3.6587789587
  C        34.5735300252       23.8523320079        4.6891408257
  C        34.0103056893       22.8167282475        5.4284498376
  C        34.4838499337       25.5634733421        2.8716544403
  C        34.5052641642       25.5532651374        1.4500162233
  C        34.0114694591       24.4488504187        0.6868270684
  C        40.6097685724       17.0770798772        0.7623663360
  C        40.5953122585       17.1024759483        3.5729222018
  C        28.7451401969       14.0677239792        5.8209105771
  C        28.1394862825       12.9179135380        5.0850495423
  C        28.8743403770       12.2363136666        4.1029438322
  C        28.2987162989       11.1778684710        3.4039792898
  C        26.9718719350       10.7761013105        3.6593475091
  C        26.2547037733       11.4465660863        4.6682750175
  C        26.8290771512       12.5041578149        5.3708692325
  C        26.3325625963        9.6855969159        2.8840699842
  C        26.3220056831        9.6995617675        1.4617617138
  C        26.8236920746       10.8062043569        0.7068630587
  C        18.1355160491        3.1810885843       10.3170906727
  C        17.4064219044        4.2783788067       11.0159374461
  C        16.3903423790        4.0000205754       11.9430482078
  C        15.7425672367        5.0399954006       12.6065154041
  C        16.0947367251        6.3836822776       12.3670807917
  C        17.0845294229        6.6532252084       11.4037604746
  C        17.7336736201        5.6158755840       10.7387481778
  C        15.4703391596        7.4913476393       13.1301436754
  C        15.4855235409        7.4906519538       14.5518581978
  C        16.1871475357        6.4970737513       15.3050133584
  C        42.9460266855       31.8596548147       10.0727615161
  C        43.6462959545       30.7719377954       10.8169140086
  C        44.5919100420       31.0932422033       11.8028896397
  C        45.1976011817       30.0876873443       12.5505795392
  C        44.8711520910       28.7346394871       12.3357092088
  C        43.9452691295       28.4203038750       11.3225562404
  C        43.3364866146       29.4254657921       10.5745051717
  C        45.4887059008       27.6553036626       13.1388829824
  C        45.4928475756       27.6808645079       14.5605782116
  C        44.8057547412       28.6889108909       15.3071942473
  C        14.8565042407        8.5631240777       15.2642069598
  C        14.8750275676        8.5630770563       12.4515425085
  C        42.9464046092       31.9616868637        5.8089664857
  C        43.6915703598       30.8854760239        5.0953516660
  C        44.6561947415       31.1913496940        4.1230911052
  C        45.2778590436       30.1717380987        3.4054974858
  C        44.9539869627       28.8214453242        3.6430760725
  C        44.0202350511       28.5238012159        4.6535984175
  C        43.3918580155       29.5406043475        5.3656385486
  C        45.5630252119       27.7240170362        2.8578399067
  C        45.5332984460       27.7172808892        1.4365446802
  C        44.8270118210       28.7075301293        0.6835851992
  C        35.1171882646       26.6437898915        0.7471564989
  C        35.0927451971       26.6221690995        3.5562667898
  C        18.1487406981        3.2471452922        5.7066348032
  C        17.4302527658        4.3440194800        4.9972563158
  C        16.4147400001        4.0527470524        4.0740269835
  C        15.7663996390        5.0833711013        3.3986525491
  C        16.1213756109        6.4285641881        3.6210795413
  C        17.1131595616        6.7119613766        4.5778975047
  C        17.7608832810        5.6830482454        5.2576352869
  C        15.4907582544        7.5242189259        2.8486477130
  C        15.4965937060        7.5076010449        1.4275129815
  C        16.1933629652        6.5058935142        0.6808278996
  H        10.6724873400       12.4659901093        3.9042839353
  H        11.6947456422       10.5512086380        2.6624421165
  H        15.3915120189       11.1683468329        4.7725731679
  H        14.3510478077       13.0710481193        6.0178053798
  H        13.3761131774       11.6312033264        1.2012882222
  H        50.3226042014       22.7481171145        3.9866195383
  H        49.3194803202       24.6225351161        2.6805852322
  H        45.6423872719       24.1616549456        4.8642589553
  H        46.6632687121       22.2907521786        6.1725483044
  H        47.6298347298       23.5758066957        1.2461511255
  H        14.8723665818        8.5883738342        4.6085575011
  H        50.2869931368       22.7024969844       12.0603936622
  H        49.2690556769       24.5753151078       13.3604925982
  H        45.6106806635       24.1096345235       11.1456451294
  H        46.6527292833       22.2543485020        9.8313095394
  H        47.6078343910       23.5517963410       14.7968509910
  H        40.6371139415       17.0810560163       11.4194559001
  H        48.6871123487       14.0949920486        7.8000104486
  H        10.6814209329       12.4669327275       12.0936942841
  H        11.6896703683       10.5249701069       13.2973036469
  H        15.3932830458       11.1585417417       11.2051340186
  H        14.3648488810       13.0869779801        9.9899359238
  H        13.3757544428       11.6221585778       14.7531267323
  H        47.9301366165       14.2182286441        9.7109564205
  H        47.7799677437       14.3737905574        6.4953971840
  H        49.0832197752       18.5523689694       10.8672489980
  H        10.4160803961       14.1343656198        7.9987207010
  H        24.4819665628        3.0255273934        3.9132342908
  H        25.6272883038        4.8809491232        2.6872373300
  H        23.2634983810        7.7543984761        4.8443929442
  H        22.1360931108        5.8892706958        6.0720316677
  H        23.8228883709        5.7914455183        1.2608492077
  H        36.3700470798       32.1961992915        3.9777156822
  H        35.2355924783       30.3737911449        2.7018238908
  H        37.4949696455       27.4443663271        4.8961032386
  H        38.6097834353       29.2796741530        6.1807453269
  H        37.0157223700       29.4577423950        1.2893503201
  H        25.7538734560        8.6048530767        4.6480449434
  H        36.4605708424       32.2484320893       12.1132140748
  H        35.3474661436       30.4351313250       13.4144313635
  H        37.5297949547       27.4907904006       11.1612702064
  H        38.6182957678       29.3159817439        9.8480721703
  H        37.0433524861       29.4760749615       14.8407184087
  H        46.1093984472       26.5876918437       11.3855671456
  H        44.6683270900       35.1162568470        7.8139804072
  H        24.4400565658        3.0404725498       12.0846449678
  H        25.5754702360        4.8788459335       13.3324073707
  H        23.1743498412        7.7693477037       11.2407862567
  H        22.0507453774        5.9191493563        9.9924271715
  H        23.8001944147        5.7944224936       14.8125748015
  H        44.9538248238       34.3904749590        9.6953079776
  H        44.9017012299       34.2067447622        6.4907464612
  H        40.6663890932       33.2096282296       10.8534013716
  H        23.1505737407        1.9583133384        8.0051315343
  H        25.7788166463       19.6812332828        3.9485500516
  H        23.6164583184       19.7131380797        2.7110941655
  H        22.3645848207       16.1792893477        4.8184104930
  H        24.5399820997       16.1529742758        6.0472403245
  H        23.7206580985       17.6751391824        1.2468238543
  H        35.1525511178       15.4215363576        4.0237068130
  H        37.2679393819       15.3706671873        2.7087010857
  H        38.6828647835       18.8101683242        4.8698044296
  H        36.5555908894       18.8503422713        6.1833345051
  H        37.2159335670       17.3434165794        1.2473044827
  H        20.3514992897       17.9574458336        4.6675339937
  H        35.1588185384       15.4415530031       12.0821296306
  H        37.2952564131       15.3657136307       13.3711522567
  H        38.7276445105       18.7788531141       11.1796852485
  H        36.5889564366       18.8329408415        9.8854214110
  H        37.2301072294       17.3400473149       14.7977876197
  H        35.1403705983       26.6985269328       11.4058379790
  H        28.5030555429       21.0898411545        7.9837344053
  H        25.7446315601       19.6422930792       12.1418851712
  H        23.5630186691       19.6952332032       13.3622493125
  H        22.3032712244       16.1707466270       11.2442623254
  H        24.4875655868       16.1363374905       10.0237538025
  H        23.7008418553       17.6658789868       14.7966284282
  H        29.0114674857       21.7176044544        9.7582097124
  H        29.1522392983       21.7508123004        6.6213208745
  H        32.0806718938       18.5416669573       10.9924803957
  H        27.4012913649       19.0799423404        8.0825208955
  H        14.8490783524       19.6504588287       12.1369710725
  H        17.0122149134       19.6975310812       13.3795426727
  H        18.3026315270       16.1889726763       11.2526990620
  H        16.1355230293       16.1576731551       10.0097565652
  H        16.9192444235       17.6995953045       14.8433118604
  H        46.0908252750       15.4362503306       12.0643169335
  H        43.9662781015       15.3690146999       13.3694902486
  H        42.5434891660       18.8055792790       11.2082563546
  H        44.6682683902       18.8469963457        9.8918500091
  H        44.0151608130       17.3066993605       14.8344203093
  H        20.2910559860       17.9224691959       11.4198724841
  H        46.0393389242       15.3801832509        4.0405231398
  H        43.9078423061       15.3107524075        2.7472207069
  H        42.5158213570       18.7834625915        4.8693445464
  H        44.6536568310       18.8385361021        6.1642252644
  H        44.0015562242       17.2880442657        1.2835574324
  H        46.1992280885       26.6826808557        4.6233305841
  H        52.7411048669       21.0626227690        8.1946962445
  H        14.8795873093       19.6740960217        3.8991535677
  H        17.0799357156       19.7441147571        2.7172171104
  H        18.3281746335       16.2189931850        4.8412420700
  H        16.1302430340       16.1732393901        6.0331518692
  H        16.9383671464       17.7103980982        1.2909678732
  H        52.3224397177       21.6733235483        6.2943413039
  H        52.0132442591       21.7021355808        9.4956124021
  H        49.0674084462       18.6078273000        5.2042670987
  H        13.2473439796       19.0163061733        7.9771360273
  H        29.9614723337       12.4567844596       12.2091893270
  H        28.8987404062       10.5311849875       13.3950412998
  H        25.2572401658       11.1976541093       11.2064003834
  H        26.3379988810       13.1128956071       10.0161479349
  H        27.1873651120       11.6689563630       14.7907735446
  H        30.9750791037       22.8001593531       12.0350004365
  H        31.9944316766       24.6748619214       13.3341702154
  H        35.6712735221       24.1656192800       11.1613327044
  H        34.6302049060       22.3019225987        9.8549083499
  H        33.6737037857       23.5904645483       14.7618000194
  H        25.7167455795        8.5972912857       11.4014088033
  H        30.9370182084       22.7018919625        3.9745445868
  H        31.9432010949       24.5632837054        2.6469404544
  H        35.5985525496       24.1636097888        4.8794123661
  H        34.5760235118       22.3078350484        6.2051510646
  H        33.6437666038       23.5732719634        1.2143777494
  H        40.5900711091       17.0728823212        4.6608768462
  H        32.5204544127       14.1421067834        8.2476486770
  H        29.8960828283       12.5527798079        3.9050457273
  H        28.8770200151       10.6445177957        2.6526384932
  H        25.2279589706       11.1500156823        4.8726694558
  H        26.2715578998       13.0366947334        6.1377624596
  H        27.1831198500       11.6817982969        1.2395327209
  H        33.2959268277       14.2027992599        6.4385833095
  H        33.4094235170       14.3946033156        9.6063104497
  H        32.1447970772       18.6304039858        5.1660491492
  H        30.2275807007       14.1919618603        8.0641314656
  H        16.1180954103        2.9635194305       12.1291931121
  H        14.9528682681        4.8206306531       13.3219058793
  H        17.3672737955        7.6860731012       11.2109581599
  H        18.5160438962        5.8185170407       10.0112513248
  H        16.7537594672        5.7397885785       14.7714908419
  H        44.8281946332       32.1403323435       11.9770503420
  H        45.9375274241       30.3414459154       13.3064661766
  H        43.6825682218       27.3782356532       11.1524412666
  H        42.5998484986       29.1901850967        9.8098431418
  H        44.2304772533       29.4367219843       14.7688668590
  H        14.8513761330        8.5463263344       11.3633195549
  H        44.8999365531       32.2340216634        3.9318275001
  H        46.0249466080       30.4129534027        2.6524339685
  H        43.7631800041       27.4840835442        4.8451029184
  H        42.6453144708       29.3178712134        6.1240582846
  H        44.2685609632       29.4704424539        1.2181936433
  H        35.0468633212       26.6359505522        4.6435352875
  H        36.6052625008       35.1343134507        8.1804612015
  H        16.1434385441        3.0131799762        3.9045955617
  H        14.9738488195        4.8565529959        2.6888106550
  H        17.3970405181        7.7473904629        4.7544099088
  H        18.5441424012        5.8934847483        5.9819941372
  H        16.7648786168        5.7557273865        1.2192867896
  H        36.2791334672       34.4825185053        6.2733424628
  H        36.3814436682       34.2089641314        9.4992960967
  H        40.5802500417       33.2031214189        5.1536414237
  H        17.4709047626        1.9478326249        7.9742852977
  H        29.0584369918       19.4107414044       12.5234265854
  H        28.6254620449       19.1644436313        3.8588332257
  H        32.2146103155       16.2457561338        3.7163005557
  H        31.2675046417       15.5903655099       12.4289347920
  H        28.0014053899       17.9385705725       14.5266881993
  H        29.8188655350       15.6605259930       14.7839702653
  H        32.3580211470       19.1803878217       16.2144039911
  H        18.8536072776        0.8690384495       12.3353842279
  H        40.5280895926       35.2290426591        3.9519825597
  H        42.3244901257       34.4193551283        3.5902225503
  H        22.0877418719        0.6926541638       12.3514378053
  H        11.5968036512       18.7129939121       12.3824870481
  H        52.2649605092       18.4311608181        3.6774670985
  H        49.2551617311       16.4767678081        3.5843781188
  H        10.1509031324       15.7981579762       12.2923312781
  H        50.8500590470       17.6925409156        3.9541885394
  H        10.0463281855       17.3946156299       12.0519582681
  H        20.2148843384        0.0024196164       12.0419774405
  H        39.1839323869       36.1244330698        3.6860013117
 Ni        30.3140989201       17.6435051322        3.1614297559
 Ni        31.5761398725       17.0588496784       -0.6655775728
 Ni        29.8926345992       18.2317926621        0.3331922693
 Ni        30.0628767768       17.3912982355       13.0796994916
  O        10.6498731834       14.3652133776        5.4858255468
  O        12.6131388977       14.6575827241        6.5838416176
  O        49.1476176956       16.8459261923        7.9897670982
  O        50.3501769844       20.9357758143        5.6480606006
  O        48.3484638931       20.5931533832        6.6658941073
  O        11.0515694725       17.0539281545        6.5006903318
  O        50.3209011942       20.8816075051       10.4068173140
  O        48.3466468676       20.5865868031        9.3271794941
  O        49.5435891403       18.2484788907       10.0683060542
  O        12.3588622291       18.6246078805        7.9997205856
  O        48.6932042969       14.1486524157        6.7512851944
  O         8.2098160675       14.2104782485        9.3225738341
  O        10.7353531065       14.5068566291       10.6644134359
  O        12.5718815001       14.5829018603        9.3286125583
  O        22.8446233499        2.0430610688        5.4870746290
  O        21.6064303892        3.5928647579        6.5888308360
  O        42.0583763715       34.1376723602        7.9790446003
  O        37.9817627833       33.1405702124        5.5732311335
  O        39.2178536743       31.5767598545        6.6667306015
  O        20.3086898604        1.0401199188        6.5022356925
  O        38.0249310622       33.1864915117       10.4149976715
  O        39.2192821445       31.5840458303        9.3267131397
  O        40.6523570013       33.7695791010       10.0602842762
  O        18.2555082498        1.3765637366        7.9968512795
  O        44.6222472499       35.1005317229        6.7587865423
  O        24.2054313666        0.0000406767        9.3207803128
  O        22.7531431460        2.0582613384       10.5840663454
  O        21.6247362657        3.5965084892        9.3433334913
  O        27.4850399996       18.7525812141        5.5007223838
  O        26.7577670593       16.9357589089        6.6555491707
  O        30.6679730853       19.4124369244        8.0720417051
  O        33.5428990005       16.3311712634        5.6498906944
  O        34.2742513855       18.1785255184        6.7418506090
  O        29.5734415141       17.0715103658        6.5729949349
  O        33.5644798995       16.3396018592       10.4075015598
  O        34.2998012585       18.2466939479        9.4068678095
  O        31.6505620514       18.3222192063       10.1493307254
  O        30.3229992665       15.1583989073        8.0755172997
  O        28.5503915466       21.0389492594        6.9067337004
  O        28.5121708750       20.9588615367        9.4102777352
  O        27.4540470521       18.6796853381       10.6567175098
  O        26.6931606110       16.9289138826        9.4114825361
  O        13.1483861651       18.6930846642       10.5873130761
  O        13.9192483985       16.9162986874        9.4049499457
  O        50.5958712034       19.3501067118        8.0206033657
  O        47.6825068386       16.3272817844       10.4176739250
  O        46.9500171851       18.1755959457        9.3258717504
  O        11.0695075774       17.0157551759        9.4896397210
  O        47.6749954111       16.3358242197        5.6529498080
  O        46.9254633915       18.2358629411        6.6636771078
  O        49.5685970233       18.3176462681        5.9824092719
  O        10.3185620551       15.1002082148        7.9970257061
  O        52.6707039160       21.0278662913        9.2418262089
  O        12.1468460665       20.8912122182        6.6732399421
  O        13.1077440350       18.6136597526        5.3257458928
  O        13.9566424178       16.9867962743        6.6658023779
  O        30.0019326246       14.4342203673       10.6635329607
  O        28.0789043371       14.6577997906        9.4840396235
  O        32.1042790438       16.9073211051        8.0499113151
  O        30.9510266109       20.9559940598       10.4173247069
  O        32.9191073229       20.6566622677        9.3277621644
  O        29.5605723233       17.0786271286        9.5687003709
  O        30.8905470211       20.9569603109        5.7436567933
  O        32.9447767781       20.5873094316        6.6634026467
  O        31.6398390241       18.3135524374        5.9316259972
  O        28.2860930799       18.6796259421        8.0747921014
  O        32.4944291001       14.2120125787        9.3244826463
  O        32.4042426836       14.2204871153        6.8238111754
  O        29.9164101031       14.4409286324        5.4924724625
  O        28.0363363893       14.5918034006        6.7530943580
  O        17.8893193302        1.9667510494       10.6628619590
  O        18.9563511147        3.5272456675        9.4080122481
  O        39.1686768177       34.1389788880        7.9972091737
  O        43.2802137442       33.0589960061       10.3318284377
  O        42.0345490588       31.5064420458        9.2416800400
  O        20.3178712542        1.0370587559        9.4799257195
  O        43.2761013847       33.1825433923        5.5748176717
  O        42.0052519465       31.5840993675        6.5829704007
  O        40.5791959051       33.7754026463        5.9360430679
  O        22.3675433495        1.3849272052        7.9979989229
  O        36.6727752410       35.0998395343        9.2332283530
  O        16.4455830503        0.0646287047        6.6684490962
  O        17.9365105471        2.0435426079        5.3263680500
  O        18.9191851395        3.5932309747        6.6659124937
  O        29.5739902080       19.1212482745        4.0849768308
  O        29.7518462909       18.9567661467       12.0106622945
  O        31.3076053594       16.2719494030        4.0714724268
  O        31.2953574295       16.4265134274       11.9222247319
  O        30.5960993600       15.9075267536       14.2470267278
  O        31.9402041334       18.3794291166       16.5751225043
  O        28.9427826934       18.1721045503       14.5796362387
  O        39.4568744402       35.2438847868        4.0019321143
  O        19.1415151928        0.0046136505       11.9905433170
  O        41.9696078628       35.1728002996        4.0871292191
  O        21.6914662190       -0.0689673606       11.8959676020
  O        51.3650926058       18.6143073401        4.0054513521
  O        10.7510072090       18.7471949063       11.9049361260
  O        50.0795184596       16.4128293893        4.0917941726
  O         9.5248181440       16.4830121051       11.9912266521
 Zr         9.2970837759       16.0528250625        6.1823934279
 Zr        49.8364636511       16.0067894184        9.7465881739
 Zr        22.0735269911        0.0305981168        6.1888408533
 Zr        42.4611193866       35.1542459590        9.8011351429
 Zr        29.5948264073       19.1264817204        6.3112303624
 Zr        29.5743329602       19.1717001729        9.8662771528
 Zr        11.0379324338       19.0521340130        9.8277841016
 Zr        11.0438116246       19.1549441411        6.2511611144
 Zr        31.3486373676       16.1051185448        9.8316711191
 Zr        31.3753301336       16.0199337471        6.2764936668
 Zr        18.6013942911       -0.0007832904        9.7631690045
 Zr        18.5068789940       -0.0065580137        6.2139429561
 Zr        12.3019865290       16.3233093783        7.9904969919
 Zr        48.6161495689       18.8330336747        8.0103934739
 Zr        20.3161825647        2.4744825678        7.9905374273
 Zr        40.6439129060       32.6878621820        7.9783039121
 Zr        28.3385863173       16.3370683499        8.0798559808
 Zr        32.6315135754       18.8733586440        8.0632761815
  H        29.3988997641       17.6906430605        1.7821549318
