     567
 i =      161, E =     -4728.3194608178
  C        11.8587672994       14.0534521985        5.7415609750
  C        12.4562281295       12.8905500734        5.0233320641
  C        11.7046092197       12.1717514969        4.0815001598
  C        12.2810116912       11.1095629406        3.3891731641
  C        13.6215489880       10.7396572962        3.6170273546
  C        14.3546057207       11.4430902185        4.5906863888
  C        13.7817103588       12.5080497836        5.2822036824
  C        14.2610884029        9.6490214813        2.8436232273
  C        14.2562637587        9.6569109404        1.4219273995
  C        13.7430826626       10.7590261237        0.6680192374
  C        49.1267533549       21.2332443563        5.8797205785
  C        48.5500203471       22.4011712359        5.1526961733
  C        49.2999272669       23.0681973124        4.1713956698
  C        48.7330187039       24.1073291582        3.4381828839
  C        47.4026348836       24.5093359512        3.6671132286
  C        46.6718599562       23.8608220396        4.6810043385
  C        47.2342812936       22.8159243593        5.4103716159
  C        46.7723776273       25.5869792167        2.8698116175
  C        46.7613261904       25.5573109452        1.4480490391
  C        47.2611955803       24.4422031382        0.7045282983
  C        14.8602168154        8.5705952355        0.7086466910
  C        14.8919822762        8.5971318119        3.5202653858
  C        49.1130741101       21.2034550263       10.1453856166
  C        48.5277771864       22.3648909049       10.8724042293
  C        49.2669047919       23.0253130224       11.8656000245
  C        48.6906220459       24.0598726599       12.5970754079
  C        47.3603524724       24.4569977030       12.3585849026
  C        46.6401031444       23.8124588539       11.3346972450
  C        47.2136031296       22.7765485102       10.6028818147
  C        46.7218941574       25.5319081180       13.1496640293
  C        46.7335676988       25.5281647901       14.5713720192
  C        47.2489305337       24.4289211348       15.3277627500
  C        40.6217980321       17.0645978693       15.3055147817
  C        40.6300618858       17.0920647442       12.4957162960
  C        11.8829581914       14.0864489878       10.2854919141
  C        12.4721655641       12.9106470495       10.9896452168
  C        11.7147421899       12.1776794797       11.9160388134
  C        12.2813178286       11.0952321652       12.5844501617
  C        13.6200470194       10.7212610493       12.3524039388
  C        14.3578756301       11.4365513866       11.3912730161
  C        13.7924786319       12.5177197490       10.7185702516
  C        14.2536553630        9.6245508610       13.1228383650
  C        14.2523381457        9.6445361179       14.5446777880
  C        13.7424932046       10.7534867940       15.2917658077
  C        22.5134846740        3.2446463476        5.7523166675
  C        23.2317156342        4.3474711013        5.0517008415
  C        24.2274957036        4.0622128188        4.1054927100
  C        24.8601178497        5.0978052530        3.4224487856
  C        24.5133177840        6.4419446214        3.6646832437
  C        23.5452921630        6.7185923952        4.6476229264
  C        22.9080006429        5.6847457831        5.3293104946
  C        25.1256637664        7.5453923189        2.8887813631
  C        25.1009192064        7.5385966007        1.4669456956
  C        24.3967153790        6.5417790655        0.7195565744
  C        38.2999853353       31.9325307452        5.8512816344
  C        37.5614297639       30.8474134237        5.1451136532
  C        36.5963794250       31.1596914136        4.1754150329
  C        35.9677054358       30.1452582321        3.4594773628
  C        36.2899882158       28.7939817025        3.6912880852
  C        37.2256591953       28.4889475467        4.6975951587
  C        37.8580796692       29.5023270021        5.4131167132
  C        35.6765667857       27.7093741278        2.8933394600
  C        35.7040046103       27.7282874144        1.4720693652
  C        36.4154930615       28.7276896642        0.7362838675
  C        25.7272343082        8.6076479205        0.7480383457
  C        25.7249185733        8.6187530285        3.5601253571
  C        38.3283034033       31.9634971638       10.1569080955
  C        37.6017557007       30.8958715858       10.9019818953
  C        36.6709353611       31.2158951965       11.9023901529
  C        36.0502435581       30.2057836615       12.6342691627
  C        36.3457899078       28.8500062973       12.3891413757
  C        37.2561700399       28.5397881748       11.3602404210
  C        37.8791946211       29.5467328196       10.6295179081
  C        35.7230598377       27.7589427164       13.1731132557
  C        35.7279120056       27.7536170481       14.5952311359
  C        36.4268099927       28.7399166544       15.3596230719
  C        46.1355360948       26.6207723659       15.2815376961
  C        46.0879910641       26.5803268945       12.4736436536
  C        22.4634641250        3.2566525191       10.2575562158
  C        23.1628251544        4.3642784143       10.9780724183
  C        24.1687135921        4.0758892022       11.9144051720
  C        24.8023555377        5.1041457082       12.6083220191
  C        24.4507575063        6.4513827737       12.3895614763
  C        23.4680454927        6.7329954435       11.4214657044
  C        22.8299495108        5.7049791929       10.7276640838
  C        25.0860691773        7.5474852608       13.1641341276
  C        25.0807754791        7.5393168006       14.5871279136
  C        24.3852280527        6.5431419784       15.3426815521
  C        26.5977481007       17.8938305533        5.7843095434
  C        25.2953578269       17.9493119631        5.0559938451
  C        25.0347550085       18.9564405697        4.1136287375
  C        23.8232617640       18.9804562015        3.4253263734
  C        22.8369315627       18.0009669162        3.6587871734
  C        23.0930991589       17.0169765706        4.6322006438
  C        24.3060511433       16.9875428070        5.3177011111
  C        21.5664789031       17.9869007692        2.8914602059
  C        21.5700328114       17.9734959307        1.4690417935
  C        22.7784507326       17.8647399759        0.7108088496
  C        34.4255362572       17.2227996208        5.8840608978
  C        35.7261535118       17.1550920268        5.1545593221
  C        35.9449253794       16.1609986096        4.1876821015
  C        37.1294301227       16.1364656608        3.4574194289
  C        38.1286563269       17.1050056813        3.6736735552
  C        37.9160012750       18.0768626954        4.6698545754
  C        36.7287851222       18.1058444689        5.3985602031
  C        39.3818718421       17.1047089058        2.8850339404
  C        39.3721058698       17.0961289983        1.4632051533
  C        38.1614297655       17.1994715079        0.7083071613
  C        20.3244756187       17.9820646575        0.7587672725
  C        20.3412322508       17.9755693519        3.5722487858
  C        34.4402263237       17.2403159624       10.1833050525
  C        35.7405593333       17.1400674026       10.9083270589
  C        35.9510897691       16.1442031073       11.8737426032
  C        37.1415140064       16.1065727273       12.5958056677
  C        38.1502376109       17.0641165804       12.3725566909
  C        37.9457560508       18.0342774867       11.3737351833
  C        36.7547547357       18.0763753766       10.6546159413
  C        39.4007249956       17.0723112908       13.1644786765
  C        39.3820541741       17.0799999157       14.5857985267
  C        38.1660953360       17.1906416030       15.3315454774
  C        35.0874133664       26.6793250757       15.2980471181
  C        35.1249985263       26.6937420791       12.4889226246
  C        26.5701952611       17.8308048175       10.3224454230
  C        25.2544104587       17.8851069790       11.0250443203
  C        24.9851570292       18.9100196749       11.9446472894
  C        23.7677626722       18.9445973884       12.6186139275
  C        22.7906010488       17.9543672202       12.3956721177
  C        23.0533588195       16.9542325904       11.4420999273
  C        24.2715254656       16.9176935589       10.7662127630
  C        21.5271540189       17.9445166564       13.1689679169
  C        21.5496221588       17.9511862086       14.5904369229
  C        22.7683446151       17.8542875838       15.3344015824
  C        14.0464523760       17.8306885340       10.2865606175
  C        15.3516457439       17.8933260267       11.0081996459
  C        15.6063132645       18.9020279035       11.9503412793
  C        16.8157135225       18.9291904237       12.6414210990
  C        17.8038758466       17.9506108948       12.4121708082
  C        17.5543623576       16.9664041707       11.4372239158
  C        16.3442231357       16.9347577951       10.7474589126
  C        19.0718275881       17.9416601635       13.1816082890
  C        19.0682245453       17.9474078738       14.6039028834
  C        17.8605042710       17.8433982819       15.3633987997
  C        46.8027026093       17.2153579722       10.1557470939
  C        45.5084141792       17.1427374738       10.8945420870
  C        45.3022594074       16.1538526271       11.8689735920
  C        44.1179122835       16.1230464491       12.6004121927
  C        43.1092003050       17.0811295303       12.3800913853
  C        43.3117095441       18.0488830168       11.3775738359
  C        44.4970224447       18.0833538830       10.6466821742
  C        41.8563849877       17.0818281326       13.1705128186
  C        41.8662933327       17.0811780062       14.5926557979
  C        43.0773465618       17.1817563778       15.3474001425
  C        20.3137384619       17.9707947104       15.3138199289
  C        20.2964653316       17.9208142627       12.5009339441
  C        46.7857280452       17.2328096659        5.8861293205
  C        45.4854579110       17.1286383115        5.1639712948
  C        45.2687180121       16.1261010518        4.2063893987
  C        44.0826863471       16.0963793230        3.4768795378
  C        43.0836613760       17.0667038403        3.6871023465
  C        43.2920121683       18.0413045208        4.6809842122
  C        44.4788996103       18.0767765748        5.4062737255
  C        41.8358995252       17.0807091007        2.8919114271
  C        41.8560207437       17.0792964201        1.4705231763
  C        43.0726428891       17.1778275412        0.7243993745
  C        46.1532846663       26.6371778725        0.7263009193
  C        46.1624738594       26.6561352552        3.5359394975
  C        14.0439566072       17.8321048090        5.7079639103
  C        15.3623904097       17.9103007852        5.0141852370
  C        15.6290136734       18.9311097226        4.0894631549
  C        16.8555589675       18.9761638024        3.4310907453
  C        17.8428299623       17.9997829262        3.6721006374
  C        17.5824379509       17.0065537191        4.6337138785
  C        16.3576772052       16.9609293512        5.2957125790
  C        19.1100929043       17.9874559325        2.9035035078
  C        19.0883218080       17.9698563488        1.4820039868
  C        17.8703034998       17.8532931377        0.7396788414
  C        28.8144768319       14.0890252737       10.3623370038
  C        28.2084699388       12.9167546369       11.0602688322
  C        28.9391574988       12.1743742184       11.9996467808
  C        28.3443971231       11.1006207779       12.6587060023
  C        27.0054187533       10.7427835498       12.4005379980
  C        26.2961149462       11.4661461620       11.4248380647
  C        26.8877863979       12.5412118182       10.7663086783
  C        26.3409891144        9.6597299187       13.1631591966
  C        26.3318019617        9.6825249570       14.5844565292
  C        26.8378968456       10.7933031726       15.3314510836
  C        32.1513056946       21.2684063370       10.1485427947
  C        32.7294829003       22.4421040352       10.8671515624
  C        31.9764618993       23.1138484905       11.8419859670
  C        32.5398032314       24.1581544803       12.5693430866
  C        33.8720195094       24.5555496118       12.3442788011
  C        34.6062478019       23.9032974523       11.3358028972
  C        34.0447508659       22.8560761641       10.6088522948
  C        34.4998365796       25.6290707656       13.1470807459
  C        34.4889858980       25.6000675204       14.5687463108
  C        33.9732165588       24.4874945815       15.3058367434
  C        25.7211466622        8.6044429536       15.3027471986
  C        25.7018343749        8.6104538718       12.4891455001
  C        32.1277498923       21.2344777793        5.9164088823
  C        32.6916436755       22.3934274167        5.1635829468
  C        31.9393449050       23.0399910962        4.1708258850
  C        32.5002119910       24.0756091915        3.4259292928
  C        33.8255089848       24.4944743740        3.6561565854
  C        34.5599118410       23.8603550562        4.6768704534
  C        34.0049494907       22.8197689833        5.4159155028
  C        34.4524377028       25.5808280689        2.8684124928
  C        34.4625579785       25.5765014564        1.4463588874
  C        33.9596283737       24.4767347303        0.6825800468
  C        40.6163294204       17.0684014232        0.7505532129
  C        40.6070687846       17.1131781556        3.5608049463
  C        28.7421778785       14.0722839282        5.8177022464
  C        28.1384240192       12.9194333605        5.0847918028
  C        28.8768520119       12.2345940421        4.1074531181
  C        28.3040427027       11.1742837417        3.4091612595
  C        26.9762079758       10.7732691369        3.6604465355
  C        26.2556518782       11.4460389912        4.6654411321
  C        26.8272396875       12.5058730821        5.3672344765
  C        26.3395274509        9.6814483123        2.8845786027
  C        26.3321198953        9.6942013470        1.4621885933
  C        26.8352656376       10.8004358212        0.7075882345
  C        18.1355730344        3.1811336267       10.3171195180
  C        17.4062385236        4.2784014226       11.0157206116
  C        16.3902899217        4.0000122138       11.9429682616
  C        15.7425263912        5.0399552531       12.6064884202
  C        16.0946549390        6.3836571583       12.3670721271
  C        17.0843002191        6.6532389777       11.4036047687
  C        17.7334331093        5.6159166965       10.7385383594
  C        15.4702224974        7.4913015694       13.1301329865
  C        15.4854484504        7.4906019606       14.5518505987
  C        16.1870108933        6.4969832869       15.3050081063
  C        42.9458256995       31.8596196694       10.0728868659
  C        43.6462221131       30.7718991381       10.8169069909
  C        44.5916787456       31.0932794691       11.8030120137
  C        45.1974292332       30.0877596956       12.5506935482
  C        44.8710926454       28.7346934435       12.3357668391
  C        43.9453213663       28.4202962996       11.3225313367
  C        43.3364617290       29.4254194663       10.5744880584
  C        45.4887079824       27.6553904466       13.1389373848
  C        45.4928267326       27.6809134508       14.5606362238
  C        44.8056965583       28.6889253015       15.3072618530
  C        14.8563973605        8.5630473625       15.2642137567
  C        14.8749407565        8.5630582507       12.4515436765
  C        42.9463783002       31.9616261667        5.8090423973
  C        43.6916522187       30.8854200033        5.0955488004
  C        44.6561656608       31.1913642858        4.1232023675
  C        45.2777272135       30.1717901262        3.4054719457
  C        44.9540442773       28.8214761075        3.6431745033
  C        44.0205657163       28.5237807021        4.6539423837
  C        43.3922818536       29.5405360635        5.3661317210
  C        45.5630689410       27.7240720871        2.8579044769
  C        45.5333072441       27.7173303693        1.4366014827
  C        44.8269442417       28.7075375574        0.6836557300
  C        35.0744770385       26.6668765584        0.7430627396
  C        35.0692398849       26.6353779659        3.5525609869
  C        18.1488315035        3.2471826539        5.7066313023
  C        17.4303068251        4.3440592577        4.9973121341
  C        16.4148207126        4.0527529528        4.0740623254
  C        15.7664835268        5.0833625296        3.3986702784
  C        16.1214205133        6.4285663765        3.6210989904
  C        17.1131685605        6.7119874491        4.5779540862
  C        17.7608941831        5.6830941800        5.2577201523
  C        15.4907993626        7.5242131842        2.8486589267
  C        15.4965326651        7.5075384661        1.4275211495
  C        16.1932802038        6.5058267062        0.6808229750
  H        10.6725158751       12.4659326780        3.9043750450
  H        11.6948026399       10.5511474248        2.6625218970
  H        15.3916055748       11.1684372354        4.7725217298
  H        14.3511501126       13.0711446387        6.0177558901
  H        13.3761566642       11.6311960152        1.2013109404
  H        50.3225215771       22.7479249916        3.9864327433
  H        49.3194247574       24.6223570604        2.6803825105
  H        45.6425390455       24.1619797314        4.8645045307
  H        46.6634259795       22.2910498502        6.1728343211
  H        47.6297254932       23.5758017545        1.2461787737
  H        14.8725012626        8.5884307864        4.6085763837
  H        50.2868388562       22.7022270207       12.0607052535
  H        49.2689445040       24.5750830605       13.3607952844
  H        45.6108480647       24.1100415694       11.1453545480
  H        46.6528862933       22.2547316025        9.8310101215
  H        47.6077030325       23.5517901335       14.7968831621
  H        40.6328099989       17.0640108021       11.4077208638
  H        48.6872919140       14.0950013550        7.8001386610
  H        10.6813424721       12.4668877032       12.0936126820
  H        11.6895956810       10.5249638730       13.2973030089
  H        15.3932229615       11.1584903698       11.2051289902
  H        14.3648079931       13.0868901731        9.9898765668
  H        13.3757376295       11.6221438021       14.7531521809
  H        47.9302010384       14.2186838091        9.7107195988
  H        47.7799899762       14.3740252496        6.4956766813
  H        49.0829921870       18.5520165461       10.8671792375
  H        10.4162185622       14.1343258121        7.9987781561
  H        24.4837825842        3.0222598307        3.9158336038
  H        25.6325520014        4.8751607310        2.6894986125
  H        23.2695319665        7.7530697631        4.8416584765
  H        22.1389464501        5.8903335305        6.0699428049
  H        23.8335889888        5.7857847936        1.2589916328
  H        36.3642346693       32.2048258774        3.9851773483
  H        35.2190711654       30.3901796563        2.7092512718
  H        37.4814511085       27.4477643233        4.8829051058
  H        38.6059701775       29.2754937837        6.1692486627
  H        36.9845920887       29.4735949869        1.2834176554
  H        25.7578364695        8.6015712654        4.6480138933
  H        36.4543090115       32.2626621280       12.1029910458
  H        35.3225254938       30.4596465698       13.4018723581
  H        37.4965706021       27.4967774973       11.1651080334
  H        38.6035723970       29.3121016955        9.8532957142
  H        37.0057841548       29.4946906527       14.8352615486
  H        46.1094787598       26.5878319504       11.3856104255
  H        44.6682587166       35.1161809380        7.8140136220
  H        24.4448797404        3.0369924731       12.0800890644
  H        25.5854959475        4.8723990814       13.3270703904
  H        23.1843729587        7.7681791979       11.2427194259
  H        22.0557265928        5.9208863491        9.9949754302
  H        23.8129179700        5.7886509205       14.8107960214
  H        44.9536331456       34.3902665812        9.6951431040
  H        44.9015136541       34.2066720106        6.4907544594
  H        40.6658129513       33.2093231068       10.8531142484
  H        23.1508427660        1.9579659862        8.0050788145
  H        25.7897921150       19.7189320227        3.9363432776
  H        23.6255287232       19.7674014633        2.7006361192
  H        22.3426952348       16.2518232445        4.8203372862
  H        24.5158887310       16.2143201178        6.0530457186
  H        23.7199693003       17.7568994423        1.2415458597
  H        35.1724190336       15.4147147773        4.0185394576
  H        37.2970758337       15.3584557016        2.7158034587
  H        38.6802550656       18.8319709649        4.8421597979
  H        36.5476042579       18.8710478456        6.1499739497
  H        37.2228052130       17.3194019977        1.2416363126
  H        20.3462193665       18.0086114285        4.6603272523
  H        35.1647628354       15.4149123819       12.0543865515
  H        37.3032416027       15.3307248772       13.3410212342
  H        38.7177431900       18.7801140641       11.1959866946
  H        36.5770841467       18.8427892468        9.9040893411
  H        37.2309835169       17.3036751575       14.7904910230
  H        35.1011087653       26.7194222551       11.4011487099
  H        28.5038807915       21.0846835780        7.9763673718
  H        25.7425075915       19.6722946566       12.1124432144
  H        23.5586208075       19.7430888701       13.3272809801
  H        22.3062836997       16.1833058325       11.2646369775
  H        24.4908286743       16.1342109493       10.0447089556
  H        23.7020784061       17.7385320939       14.7921696922
  H        29.0165439052       21.7145873148        9.7554227144
  H        29.1598525514       21.7471280580        6.6257891668
  H        32.1002432027       18.5240487355       10.9334209458
  H        27.4042104564       19.0804873701        8.0863635346
  H        14.8457835576       19.6595977888       12.1255713603
  H        17.0104309692       19.7169920836       13.3659399167
  H        18.3075632198       16.2033854245       11.2515900126
  H        16.1390386914       16.1619539846       10.0104647479
  H        16.9196128699       17.7210530695       14.8348040280
  H        46.0877914009       15.4233080259       12.0472470897
  H        43.9599926032       15.3491468810       13.3484096880
  H        42.5410678667       18.7967336201       11.2023745659
  H        44.6692868278       18.8452420928        9.8899695057
  H        44.0171189662       17.2950340216       14.8145328216
  H        20.2917281690       17.9393650560       11.4125594868
  H        46.0450064287       15.3835713169        4.0362865120
  H        43.9171441187       15.3169358012        2.7362953020
  H        42.5263971164       18.7958122044        4.8493133064
  H        44.6600867404       18.8472210140        6.1517341438
  H        44.0089291696       17.2870791406        1.2640630874
  H        46.1994105519       26.6827755682        4.6233796614
  H        52.7411947840       21.0626854764        8.1946505493
  H        14.8652002436       19.6830789994        3.9042713997
  H        17.0621287859       19.7709058121        2.7175007233
  H        18.3364139801       16.2460886740        4.8263865906
  H        16.1412067115       16.1819285608        6.0227475876
  H        16.9368021135       17.7386342766        1.2824066247
  H        52.3225621675       21.6734894693        6.2944569042
  H        52.0135792621       21.7024618351        9.4956522468
  H        49.0679118317       18.6080799824        5.2038880262
  H        13.2473158891       19.0165432177        7.9768640188
  H        29.9714786721       12.4533461412       12.1990107499
  H        28.9131736118       10.5247776808       13.3856529033
  H        25.2614095139       11.2008191359       11.2176692918
  H        26.3369941936       13.1201152956       10.0290325433
  H        27.2017979214       11.6621044308       14.7912430383
  H        30.9542407125       22.7919628364       12.0257354846
  H        31.9510140208       24.6792407041       13.3210826865
  H        35.6371192194       24.2016424247       11.1563482395
  H        34.6166800047       22.3265902292        9.8504087949
  H        33.6124941490       23.6213891797       14.7585270657
  H        25.7287205306        8.5939282371       11.4009932239
  H        30.9198721316       22.7078012125        3.9875618150
  H        31.9101469509       24.5778135992        2.6623484545
  H        35.5859734453       24.1724932018        4.8600921980
  H        34.5780561291       22.3086183959        6.1857659846
  H        33.5882327010       23.6022596854        1.2092159703
  H        40.6035801295       17.0912565239        4.6489280085
  H        32.5173779777       14.1471527420        8.2323172777
  H        29.8994854312       12.5501300596        3.9128492727
  H        28.8852186492       10.6388220950        2.6615357734
  H        25.2282288416       11.1498851450        4.8670210935
  H        26.2665787334       13.0402417383        6.1305750527
  H        27.1949684774       11.6755303626        1.2409039752
  H        33.2980654068       14.2025212290        6.4386547676
  H        33.4095517811       14.3978306049        9.5956896212
  H        32.0829423607       18.5839029135        5.1673762267
  H        30.2236100393       14.1915103072        8.0678516559
  H        16.1181024807        2.9635020391       12.1291411831
  H        14.9529137604        4.8205474474       13.3219595009
  H        17.3669762416        7.6861008416       11.2107762753
  H        18.5157118532        5.8186021182       10.0109554670
  H        16.7536003909        5.7396872710       14.7714804564
  H        44.8278401562       32.1403889003       11.9772172256
  H        45.9372504822       30.3415664125       13.3066651098
  H        43.6826902325       27.3782143315       11.1524009892
  H        42.5998631577       29.1901019880        9.8097962176
  H        44.2303914884       29.4367184786       14.7689372796
  H        14.8512910798        8.5463194297       11.3633220920
  H        44.8995894084       32.2340639538        3.9316928164
  H        46.0245863224       30.4130567921        2.6521991645
  H        43.7636440599       27.4840460399        4.8455271923
  H        42.6457828046       29.3177674976        6.1245892581
  H        44.2684583134       29.4704360034        1.2182492286
  H        35.0321228998       26.6444726223        4.6402302022
  H        36.6051365677       35.1344774448        8.1803711820
  H        16.1435607201        3.0131792948        3.9046074664
  H        14.9739639359        4.8565185520        2.6888035881
  H        17.3970210867        7.7474229068        4.7544771514
  H        18.5441282402        5.8935467464        5.9821016535
  H        16.7647690160        5.7556302080        1.2192666631
  H        36.2790788764       34.4826027482        6.2734494769
  H        36.3812637729       34.2091315924        9.4992000296
  H        40.5800596421       33.2030536404        5.1538834501
  H        17.4709525174        1.9478526003        7.9742631007
  H        29.0944643430       19.3584341667       12.5805592797
  H        28.7123388692       19.0372031975        3.8365752719
  H        32.2157453199       16.3593552967        3.7385262843
  H        31.3056863232       15.6283294808       12.3801265140
  H        28.2659202349       17.7103093655       14.8031807284
  H        29.8632617330       15.4709021779       14.6745728047
  H        32.4648544296       18.4223778201       17.1169677547
  H        18.8535803665        0.8689839478       12.3354261974
  H        40.5280471835       35.2290205137        3.9519715591
  H        42.3242117901       34.4188725254        3.5904492799
  H        22.0876072359        0.6921001647       12.3516032496
  H        11.5968409533       18.7126923641       12.3825586453
  H        52.2648895240       18.4312315354        3.6774944077
  H        49.2551753068       16.4766631178        3.5844104283
  H        10.1502535552       15.7982809654       12.2927976803
  H        50.8500738194       17.6925000941        3.9541051232
  H        10.0460593193       17.3946871238       12.0519558492
  H        20.2146479531        0.0021563353       12.0420090005
  H        39.1839263933       36.1244363380        3.6859651115
 Ni        30.3546455702       17.6717398225        2.9114429188
 Ni        31.6642728733       16.6653832931       -0.5781136063
 Ni        30.2291792654       18.1219152100        0.2487160239
 Ni        30.0976270469       17.3400889262       13.1587785509
  O        10.6499329522       14.3651418705        5.4858566053
  O        12.6131567783       14.6575445379        6.5838968822
  O        49.1477973239       16.8459495110        7.9898128222
  O        50.3501691703       20.9358951516        5.6480928805
  O        48.3484919716       20.5932539870        6.6659621601
  O        11.0515199308       17.0538420116        6.5007658310
  O        50.3208324082       20.8816584566       10.4068565399
  O        48.3466745589       20.5866783819        9.3270878703
  O        49.5434745728       18.2483728759       10.0682182431
  O        12.3589430248       18.6245751709        7.9996091674
  O        48.6932000401       14.1486004302        6.7513375739
  O         8.2099205123       14.2104125992        9.3224837319
  O        10.7352917663       14.5067669715       10.6643027920
  O        12.5717513363       14.5828296923        9.3284995495
  O        22.8446439236        2.0427741398        5.4871093262
  O        21.6067381832        3.5929793516        6.5885936143
  O        42.0582524377       34.1374593979        7.9790908013
  O        37.9818111826       33.1413256502        5.5733535206
  O        39.2172102676       31.5763607385        6.6659117898
  O        20.3086854428        1.0401803606        6.5023026046
  O        38.0252525691       33.1876134982       10.4145204979
  O        39.2184476845       31.5834678088        9.3275080165
  O        40.6523480851       33.7694683250       10.0601191743
  O        18.2555693384        1.3765938945        7.9968117536
  O        44.6222430745       35.1005224339        6.7587978380
  O        24.2054087680        0.0000126327        9.3207829656
  O        22.7533364964        2.0580266215       10.5840603279
  O        21.6252420981        3.5969525683        9.3441024223
  O        27.4940896490       18.7640598923        5.4931498539
  O        26.7288679218       16.9843512298        6.6673195615
  O        30.6626690062       19.4093995952        8.0732029130
  O        33.5446870723       16.3404242915        5.5814017382
  O        34.2759697904       18.1672201710        6.7298738542
  O        29.5695714479       17.0682052968        6.5759423569
  O        33.5569979395       16.3401626900       10.4091317536
  O        34.2991694820       18.2443915715        9.4052487964
  O        31.6567925117       18.3216195721       10.0921691238
  O        30.3182992486       15.1578949351        8.0718043317
  O        28.5510308345       21.0385901859        6.9043983161
  O        28.5134212122       20.9558474503        9.4130380923
  O        27.4585399128       18.6807085302       10.6579297729
  O        26.6931042417       16.9302857481        9.4138591287
  O        13.1476574565       18.6932830953       10.5867756728
  O        13.9191142671       16.9162150769        9.4047879735
  O        50.5959830255       19.3502237528        8.0205664072
  O        47.6832696021       16.3268372427       10.4170365529
  O        46.9504589594       18.1755985586        9.3254513379
  O        11.0696120090       17.0155977326        9.4895263655
  O        47.6755420052       16.3357967559        5.6529882872
  O        46.9257884309       18.2360021443        6.6636652783
  O        49.5685736269       18.3177472228        5.9823051832
  O        10.3187031680       15.1001634890        7.9971161616
  O        52.6707494530       21.0279469312        9.2418131785
  O        12.1467973212       20.8912672452        6.6733045464
  O        13.1062776291       18.6141198492        5.3259126315
  O        13.9569551109       16.9873258464        6.6646328091
  O        30.0053186278       14.4371331587       10.6628913243
  O        28.0795357397       14.6584158209        9.4843605457
  O        32.1365503023       16.8652642298        8.0168151820
  O        30.9471168007       20.9479647718       10.4203265743
  O        32.9171040393       20.6566273273        9.3266479494
  O        29.5594450926       17.0791113274        9.5653555149
  O        30.8890067459       20.9536981248        5.7414774624
  O        32.9444131534       20.5896689568        6.6627207004
  O        31.6461086977       18.3174613397        5.9924646907
  O        28.2891208856       18.6803732629        8.0774622458
  O        32.4940282292       14.2112278423        9.3187614337
  O        32.4045900190       14.2231453494        6.8195143472
  O        29.9149751315       14.4424416683        5.4892264675
  O        28.0318693111       14.5992019556        6.7482486042
  O        17.8892625255        1.9668124470       10.6628189066
  O        18.9563579833        3.5272660929        9.4079440878
  O        39.1686523275       34.1389289529        7.9972136956
  O        43.2802035512       33.0589755015       10.3317220963
  O        42.0344865587       31.5064666995        9.2416416843
  O        20.3179454308        1.0370832767        9.4798965911
  O        43.2760983944       33.1824880405        5.5748895145
  O        42.0052118677       31.5840828289        6.5830258739
  O        40.5792702107       33.7754275299        5.9362192885
  O        22.3675435243        1.3849567727        7.9979613500
  O        36.6727297647       35.0999545630        9.2331346654
  O        16.4455648251        0.0647344086        6.6684687479
  O        17.9365308943        2.0435839918        5.3263907124
  O        18.9192836658        3.5931967363        6.6659553207
  O        29.6535573811       18.9695127387        4.0868546286
  O        29.7849254556       18.8921222236       12.0744781124
  O        31.3043146526       16.4132411816        4.0774975328
  O        31.2601192201       16.4870743190       11.9125941934
  O        30.6251038969       15.8159868359       14.1699440342
  O        31.8643669539       17.6553409469       17.0749687336
  O        29.1098072400       18.1752990409       14.6675682821
  O        39.4568769104       35.2439100660        4.0019407092
  O        19.1413338248        0.0045312396       11.9905316314
  O        41.9696075255       35.1725931769        4.0871391889
  O        21.6912778135       -0.0693834420       11.8959495035
  O        51.3649543296       18.6143204980        4.0053401485
  O        10.7510375673       18.7471592546       11.9050319923
  O        50.0795701033       16.4127493221        4.0917564121
  O         9.5244055198       16.4831149443       11.9911553671
 Zr         9.2972988902       16.0527124321        6.1824519989
 Zr        49.8369952507       16.0067480562        9.7464933886
 Zr        22.0733309790        0.0303709799        6.1889403044
 Zr        42.4609678867       35.1540606236        9.8011233644
 Zr        29.5958627720       19.1162157312        6.3024908972
 Zr        29.5757192881       19.1687332038        9.8756437048
 Zr        11.0380577206       19.0520816646        9.8278813968
 Zr        11.0439721506       19.1548951770        6.2509783765
 Zr        31.3493023856       16.1069692607        9.7979723312
 Zr        31.3688692047       16.0262989365        6.2425810378
 Zr        18.6012532509       -0.0007199854        9.7631594509
 Zr        18.5067916553       -0.0065708752        6.2139173491
 Zr        12.3024214073       16.3234208448        7.9902862047
 Zr        48.6167012097       18.8331342752        8.0103699536
 Zr        20.3163057369        2.4744954376        7.9907079962
 Zr        40.6434571898       32.6875817736        7.9783092553
 Zr        28.3321375350       16.3433686420        8.0744855783
 Zr        32.6267458063       18.8617298611        8.0464491862
  H        29.4067809207       18.0630689794        1.7148121516
