     573
 i =      218, E =     -4762.8270999316
  C        11.8586816589       14.0535175247        5.7415263170
  C        12.4561456492       12.8905206951        5.0233252353
  C        11.7046324227       12.1719771889        4.0812192294
  C        12.2810272555       11.1097625752        3.3888992990
  C        13.6214506909       10.7395963635        3.6169833742
  C        14.3543325745       11.4427142418        4.5910108993
  C        13.7814670525       12.5076966933        5.2825192220
  C        14.2610756911        9.6489968428        2.8435862525
  C        14.2563715957        9.6569419827        1.4218835989
  C        13.7433421988       10.7591051692        0.6679362751
  C        49.1267190073       21.2332396030        5.8796951516
  C        48.5500388015       22.4011022290        5.1526243865
  C        49.3000711213       23.0683599561        4.1715611235
  C        48.7331412388       24.1074838106        3.4383579745
  C        47.4026266595       24.5092565914        3.6670067071
  C        46.6716993061       23.8604118360        4.6805731151
  C        47.2341129909       22.8155202449        5.4099611825
  C        46.7724195537       25.5869625124        2.8697189238
  C        46.7616247069       25.5574481553        1.4479501953
  C        47.2615593451       24.4423602099        0.7044462090
  C        14.8604360340        8.5706822597        0.7085997905
  C        14.8917722587        8.5969745683        3.5202221993
  C        49.1131371051       21.2035275078       10.1453771151
  C        48.5278536032       22.3648833983       10.8724116792
  C        49.2671289231       23.0256131998       11.8653103826
  C        48.6908045135       24.0601750021       12.5967384720
  C        47.3603825852       24.4569883727       12.3585311154
  C        46.6399596587       23.8120633140       11.3350136368
  C        47.2134723678       22.7761448079       10.6032240989
  C        46.7219614177       25.5319486275       13.1495806562
  C        46.7338078418       25.5282820254       14.5712839529
  C        47.2492855091       24.4291037940       15.3276842139
  C        40.6198268016       17.0841182260       15.3105519471
  C        40.6287115591       17.1050285555       12.5008510724
  C        11.8828591832       14.0864434926       10.2854335148
  C        12.4721074239       12.9105517482       10.9895207241
  C        11.7148088153       12.1777632707       11.9161455045
  C        12.2813416295       11.0953067337       12.5845988764
  C        13.6199625106       10.7211165013       12.3522934188
  C        14.3576646175       11.4361153090       11.3908390098
  C        13.7922502135       12.5172790597       10.7181407461
  C        14.2536440585        9.6244569085       13.1227481843
  C        14.2525397853        9.6445614606       14.5445913651
  C        13.7427098417       10.7535243783       15.2916797368
  C        22.5121414400        3.2444185054        5.7531969729
  C        23.2273363782        4.3497942600        5.0540541041
  C        24.2220671939        4.0697613301        4.1054669839
  C        24.8494353618        5.1093679015        3.4236960027
  C        24.4978668328        6.4513302528        3.6704614540
  C        23.5315533217        6.7228630590        4.6561721510
  C        22.8994411724        5.6850695783        5.3361741329
  C        25.1024763578        7.5586285389        2.8947531412
  C        25.0677432319        7.5554108846        1.4733410513
  C        24.3632812240        6.5572530512        0.7279618349
  C        38.2976151691       31.9277097850        5.8520788276
  C        37.5553054279       30.8395169084        5.1512586540
  C        36.5903639195       31.1472583558        4.1795351625
  C        35.9593110434       30.1299856758        3.4686642313
  C        36.2777089555       28.7782304307        3.7056282003
  C        37.2116210904       28.4780474118        4.7154881754
  C        37.8465864060       29.4942522367        5.4260155846
  C        35.6678442481       27.6902618051        2.9060131506
  C        35.7084081982       27.7050237865        1.4842124569
  C        36.4196545006       28.7069653546        0.7512676017
  C        25.6869436131        8.6274251525        0.7532975248
  C        25.7052012566        8.6303931100        3.5650611116
  C        38.3301059395       31.9604889028       10.1604219414
  C        37.6129614858       30.8878449244       10.9096820545
  C        36.6798798115       31.1979539305       11.9113197485
  C        36.0693760120       30.1815206768       12.6442034383
  C        36.3765509626       28.8276151489       12.4003786313
  C        37.2905597844       28.5274977815       11.3713340856
  C        37.9027894709       29.5404139524       10.6393417523
  C        35.7616391250       27.7293252167       13.1826886468
  C        35.7559461417       27.7253170776       14.6054204168
  C        36.4407859137       28.7178071567       15.3746046848
  C        46.1358231760       26.6208987692       15.2814675260
  C        46.0878141352       26.5802232685       12.4735688946
  C        22.4600695191        3.2563041702       10.2581888269
  C        23.1518316108        4.3662606711       10.9818681738
  C        24.1517331966        4.0825055259       11.9257132839
  C        24.7769874360        5.1142294221       12.6219870806
  C        24.4228882106        6.4597096566       12.3970214281
  C        23.4460615125        6.7366048761       11.4217458317
  C        22.8159679590        5.7051761100       10.7261738781
  C        25.0511999350        7.5595714656       13.1712261460
  C        25.0419091709        7.5551021713       14.5942065683
  C        24.3490529842        6.5580813096       15.3510470566
  C        26.6143072684       17.8587283247        5.7846400373
  C        25.3091222375       17.9049738206        5.0596364973
  C        25.0414325564       18.9124068905        4.1188577710
  C        23.8293122947       18.9305772262        3.4315148092
  C        22.8471671004       17.9465994186        3.6649543705
  C        23.1104014490       16.9620298693        4.6361356702
  C        24.3251406817       16.9369992759        5.3197379302
  C        21.5744034513       17.9333320008        2.8997429956
  C        21.5762331557       17.9180996485        1.4772845095
  C        22.7831295423       17.8015070842        0.7180063132
  C        34.4400049368       17.1954179731        5.9179008821
  C        35.7327784716       17.1421746673        5.1756214590
  C        35.9492357684       16.1571008100        4.1989741576
  C        37.1283390018       16.1446945254        3.4596894089
  C        38.1261607475       17.1138494353        3.6793789124
  C        37.9148580747       18.0783435929        4.6830396760
  C        36.7315973187       18.0977085800        5.4179968080
  C        39.3788403701       17.1189257705        2.8896630460
  C        39.3693797278       17.1170251640        1.4677847411
  C        38.1593195253       17.2302041728        0.7134485476
  C        20.3303383003       17.9352285057        0.7674907903
  C        20.3493803150       17.9322450714        3.5812269965
  C        34.4406289539       17.2383169936       10.1874954904
  C        35.7394548869       17.1407136893       10.9130918381
  C        35.9476243767       16.1554244640       11.8899349937
  C        37.1376510388       16.1242233620       12.6128465290
  C        38.1486896379       17.0766971027       12.3783174284
  C        37.9463880297       18.0358198934       11.3683257906
  C        36.7555935690       18.0725240023       10.6491983824
  C        39.3992057492       17.0899261955       13.1698453796
  C        39.3799049991       17.1034930850       14.5912823433
  C        38.1643059457       17.2230410374       15.3364991207
  C        35.1189915664       26.6468163398       15.3056091324
  C        35.1778901960       26.6567901081       12.4958414859
  C        26.5735973603       17.8276171380       10.3255165230
  C        25.2594860324       17.8736098376       11.0331342010
  C        24.9930487582       18.8835818436       11.9701581014
  C        23.7753643007       18.9099792431       12.6444550509
  C        22.7943006274       17.9271447953       12.4044910768
  C        23.0551928682       16.9417864862       11.4350936059
  C        24.2737559986       16.9128045604       10.7595347692
  C        21.5301060694       17.9105219467       13.1769038161
  C        21.5533645029       17.9045365560       14.5984357923
  C        22.7716645534       17.7946014853       15.3415267649
  C        14.0468200036       17.8290199236       10.2886926719
  C        15.3518478189       17.8867423434       11.0137302759
  C        15.6089431786       18.8910230191       11.9600748804
  C        16.8181336722       18.9126831746       12.6527310380
  C        17.8047307584       17.9328893046       12.4211433962
  C        17.5524847071       16.9527276917       11.4426825996
  C        16.3426711447       16.9265713098       10.7516600128
  C        19.0737759573       17.9167439811       13.1906535413
  C        19.0718237644       17.9147487141       14.6132085554
  C        17.8643106732       17.8153675357       15.3736302207
  C        46.8020052393       17.2161959039       10.1569919851
  C        45.5082285927       17.1459986883       10.8971934967
  C        45.3018501546       16.1608678083       11.8755706213
  C        44.1176705577       16.1330591325       12.6077156959
  C        43.1084402095       17.0902391329       12.3846711059
  C        43.3113747332       18.0541410897       11.3783235520
  C        44.4964289106       18.0857289573       10.6467487530
  C        41.8553632993       17.0945578920       13.1753995758
  C        41.8646000941       17.0962007402       14.5977264801
  C        43.0755116503       17.1938251301       15.3530513426
  C        20.3181321272       17.9274192517       15.3224389074
  C        20.2985508309       17.8968350141       12.5093694567
  C        46.7854556127       17.2324730973        5.8866596712
  C        45.4843563620       17.1288951879        5.1665616720
  C        45.2657471460       16.1282852262        4.2073636889
  C        44.0787905663       16.1009254506        3.4792453794
  C        43.0806045882       17.0716101688        3.6923082837
  C        43.2905018286       18.0435540309        4.6884914164
  C        44.4782498501       18.0767947121        5.4123068346
  C        41.8329011103       17.0898742066        2.8972044755
  C        41.8533818429       17.0922628051        1.4758432178
  C        43.0703550807       17.1890241469        0.7300778948
  C        46.1535922600       26.6373364680        0.7262277304
  C        46.1623956236       26.6560377090        3.5358786271
  C        14.0446903154       17.8309807308        5.7084704719
  C        15.3651587318       17.9037747213        5.0167086045
  C        15.6398040967       18.9207875078        4.0903548427
  C        16.8686999050       18.9574631633        3.4353641841
  C        17.8500677390       17.9761613998        3.6811250684
  C        17.5820167398       16.9874269410        4.6451265557
  C        16.3552175602       16.9504104144        5.3037510773
  C        19.1176582903       17.9522049817        2.9129951525
  C        19.0947632249       17.9318282353        1.4914835625
  C        17.8754944002       17.8229367054        0.7498527306
  C        28.8106574767       14.0942170554       10.3960790265
  C        28.1963862020       12.9222991630       11.0835679147
  C        28.9113290972       12.1885329360       12.0419604432
  C        28.3081987709       11.1149683393       12.6923401613
  C        26.9759207609       10.7509594077       12.4088487928
  C        26.2836734897       11.4647968775       11.4141292027
  C        26.8841842133       12.5385374766       10.7622442977
  C        26.3025540947        9.6730502830       13.1685348997
  C        26.2858052946        9.7022129191       14.5895220569
  C        26.7840075711       10.8174508608       15.3350233409
  C        32.1801181581       21.2379650825       10.1493005202
  C        32.7741261847       22.4034499338       10.8685386625
  C        32.0242886373       23.0846798988       11.8399511805
  C        32.5941900606       24.1243921486       12.5683601164
  C        33.9300901854       24.5121991267       12.3475043183
  C        34.6624638318       23.8499238384       11.3440014900
  C        34.0950514312       22.8045922716       10.6173182090
  C        34.5563919026       25.5876981618       13.1511638755
  C        34.5359188388       25.5609262779       14.5732819102
  C        34.0246285117       24.4448612262       15.3083399672
  C        25.6779856761        8.6235550779       15.3084650860
  C        25.6680215396        8.6209389902       12.4949484455
  C        32.0784895542       21.1982781990        5.8750165567
  C        32.6440160592       22.3641844619        5.1353550228
  C        31.9142831122       23.0038273254        4.1213542399
  C        32.4868174853       24.0444060821        3.3917427879
  C        33.8028013797       24.4748747195        3.6547339019
  C        34.5124045407       23.8491634367        4.6983173293
  C        33.9455427510       22.8056934863        5.4240608637
  C        34.4448851313       25.5587066315        2.8737448299
  C        34.4775682792       25.5465785771        1.4512357268
  C        33.9955586026       24.4387234213        0.6851049290
  C        40.6139196763       17.0867953379        0.7555486781
  C        40.6039125186       17.1223990864        3.5658766334
  C        28.7450134079       14.0689043103        5.8172383275
  C        28.1375286730       12.9222933713        5.0805971250
  C        28.8592906187       12.2523752868        4.0812116974
  C        28.2780306848       11.1951783656        3.3855159302
  C        26.9582840452       10.7839942093        3.6605653027
  C        26.2539920188       11.4431017048        4.6861295533
  C        26.8338545626       12.4991323268        5.3854603316
  C        26.3125375394        9.6963058333        2.8879171567
  C        26.2922315547        9.7145574347        1.4659154635
  C        26.7850265758       10.8251649699        0.7109961307
  C        18.1354579603        3.1807873504       10.3171271166
  C        17.4061314221        4.2781068755       11.0158127744
  C        16.3902781951        3.9997354950       11.9431560099
  C        15.7425268395        5.0397182106       12.6066596440
  C        16.0945321587        6.3834166825       12.3670792423
  C        17.0841118697        6.6529484173       11.4035322312
  C        17.7332301133        5.6156063319       10.7384857874
  C        15.4702117140        7.4911583786       13.1301035038
  C        15.4855790299        7.4905854534       14.5518193571
  C        16.1871468683        6.4969894498       15.3050053569
  C        42.9457727892       31.8595115627       10.0728104867
  C        43.6461427668       30.7718139404       10.8167852137
  C        44.5918952075       31.0931469248       11.8026374407
  C        45.1976102684       30.0876176877       12.5503228242
  C        44.8709387762       28.7345776946       12.3357118212
  C        43.9448010468       28.4202173375       11.3227975448
  C        43.3359794731       29.4253478982       10.5747304700
  C        45.4886266498       27.6553177541       13.1388982229
  C        45.4930332607       27.6810090805       14.5605938677
  C        44.8059614579       28.6890759040       15.3072003781
  C        14.8565774684        8.5630789032       15.2641612357
  C        14.8748077629        8.5628462501       12.4515085549
  C        42.9463744859       31.9615811790        5.8089799628
  C        43.6915529733       30.8854187522        5.0954193716
  C        44.6565709543       31.1913058780        4.1235327867
  C        45.2781827691       30.1717426753        3.4058364794
  C        44.9539926360       28.8214593618        3.6430842387
  C        44.0200144786       28.5237461612        4.6533806150
  C        43.3916918823       29.5405264451        5.3655061118
  C        45.5631533665       27.7240796459        2.8578551057
  C        45.5335740610       27.7174466389        1.4365509295
  C        44.8272754124       28.7076885469        0.6835932610
  C        35.0919319084       26.6381327665        0.7511850496
  C        35.0524080294       26.6175765706        3.5614229076
  C        18.1486328603        3.2468607716        5.7066327647
  C        17.4300342603        4.3437735268        4.9972742882
  C        16.4146298294        4.0525345004        4.0739261445
  C        15.7663370506        5.0831834362        3.3985117920
  C        16.1211584005        6.4283890629        3.6210979645
  C        17.1128210828        6.7117365062        4.5780595317
  C        17.7604783498        5.6828068785        5.2578360834
  C        15.4907140677        7.5241215030        2.8486162678
  C        15.4965780384        7.5075187103        1.4274768512
  C        16.1933946823        6.5058206704        0.6808204036
  H        10.6726189646       12.4663379427        3.9039066355
  H        11.6948622089       10.5515534357        2.6620502562
  H        15.3911991617       11.1677495497        4.7731319314
  H        14.3507331557       13.0705188674        6.0184095764
  H        13.3763051533       11.6312413778        1.2012081077
  H        50.3227469749       22.7482689064        3.9867501288
  H        49.3196193739       24.6227172200        2.6807552198
  H        45.6422310825       24.1612442598        4.8637869931
  H        46.6630437441       22.2903770476        6.1720789540
  H        47.6299964747       23.5759101827        1.2460792772
  H        14.8720426854        8.5881446320        4.6085275908
  H        50.2871739426       22.7027858541       12.0602313953
  H        49.2691802181       24.5756593907       13.3602334156
  H        45.6105441713       24.1092811693       11.1459652868
  H        46.6525697567       22.2540043194        9.8317073636
  H        47.6079835422       23.5519479268       14.7967958316
  H        40.6312277343       17.0726499558       11.4129624575
  H        48.6870456713       14.0949639153        7.7999962687
  H        10.6814899883       12.4671426836       12.0939394952
  H        11.6896736903       10.5252083357       13.2976328757
  H        15.3928801893       11.1577659200       11.2043991000
  H        14.3644006547       13.0862359241        9.9891426313
  H        13.3758980501       11.6221484647       14.7530520268
  H        47.9301135895       14.2183162457        9.7108539036
  H        47.7799333664       14.3734811912        6.4952843992
  H        49.0826095862       18.5520090402       10.8670502252
  H        10.4158949799       14.1343919331        7.9987416333
  H        24.4811862361        3.0310720662        3.9126724795
  H        25.6206851225        4.8918270894        2.6879730014
  H        23.2528138409        7.7559821672        4.8530866570
  H        22.1310222768        5.8854786760        6.0788179549
  H        23.8035796934        5.7998086746        1.2689430601
  H        36.3598240923       32.1916012574        3.9827576085
  H        35.2121366393       30.3739621617        2.7166280297
  H        37.4655827661       27.4375784594        4.9074466072
  H        38.5931297093       29.2682663938        6.1838123924
  H        36.9799833464       29.4576587881        1.3008538409
  H        25.7481841991        8.6085461389        4.6525070219
  H        36.4521966181       32.2423606662       12.1124109542
  H        35.3392171539       30.4296201880       13.4113977657
  H        37.5419796352       27.4871393059       11.1757889529
  H        38.6288675292       29.3114829544        9.8630215586
  H        37.0182308862       29.4764295798       14.8540262144
  H        46.1090217790       26.5875465620       11.3855290466
  H        44.6682584654       35.1161632774        7.8138963491
  H        24.4299047691        3.0447674083       12.0952820882
  H        25.5560123759        4.8868103630       13.3465406747
  H        23.1607656606        7.7705934432       11.2387640388
  H        22.0460226690        5.9165040438        9.9877195895
  H        23.7778844472        5.8019251508       14.8202745030
  H        44.9536922092       34.3904122336        9.6952740570
  H        44.9016435393       34.2067293613        6.4906332007
  H        40.6659042008       33.2088945010       10.8530903785
  H        23.1503324757        1.9578277413        8.0054365746
  H        25.7922889011       19.6794049615        3.9428632315
  H        23.6270666643       19.7173742962        2.7078516050
  H        22.3639311809       16.1931565808        4.8249264331
  H        24.5395052950       16.1626183101        6.0526380238
  H        23.7241952250       17.6862498035        1.2480576512
  H        35.1793007805       15.4087446385        4.0278264907
  H        37.2928927826       15.3749423349        2.7088835199
  H        38.6773099477       18.8348539291        4.8569832774
  H        36.5519150006       18.8575786829        6.1750483904
  H        37.2207137993       17.3572989957        1.2454838681
  H        20.3549955066       17.9679208623        4.6692436093
  H        35.1604645560       15.4293612465       12.0796704824
  H        37.2967304882       15.3575395791       13.3679538906
  H        38.7197244541       18.7781943059       11.1822955037
  H        36.5794268221       18.8315487716        9.8909223758
  H        37.2293070735       17.3453921470       14.7971630910
  H        35.1603698453       26.6811079267       11.4078767615
  H        28.5040155127       21.0820421109        7.8896094498
  H        25.7519901405       19.6416134227       12.1502425098
  H        23.5682734546       19.6977154629       13.3656402534
  H        22.3060153783       16.1761093872       11.2441454431
  H        24.4907066994       16.1406222369       10.0252924151
  H        23.7040038724       17.6741175286       14.7980628597
  H        29.0080823500       21.7215107558        9.7424124250
  H        29.1793963635       21.7231040047        6.5601549398
  H        32.0822271156       18.5596121773       10.9880643575
  H        27.4101365473       19.0759965556        8.0803910078
  H        14.8505583154       19.6502782209       12.1376765968
  H        17.0133862465       19.6978370195       13.3800263454
  H        18.3034686359       16.1880710350       11.2548017585
  H        16.1365452799       16.1564783226       10.0120805635
  H        16.9222115474       17.6998094441       14.8456217727
  H        46.0870073322       15.4305141283       12.0563805344
  H        43.9602024636       15.3616871831       13.3584144682
  H        42.5409402136       18.8015824722       11.2004336045
  H        44.6680061620       18.8449567451        9.8872117692
  H        44.0158566448       17.3051957512       14.8208094274
  H        20.2932538804       17.9244893447       11.4211693925
  H        46.0413192617       15.3856028435        4.0346075837
  H        43.9119168587       15.3232893497        2.7370665140
  H        42.5254890677       18.7981008267        4.8593534534
  H        44.6606189128       18.8455535964        6.1591899349
  H        44.0068001991       17.2956657790        1.2699753090
  H        46.1990324419       26.6825067864        4.6233335596
  H        52.7410803117       21.0626406963        8.1946804039
  H        14.8804833562       19.6762378945        3.9005963394
  H        17.0812820467       19.7492205855        2.7202083521
  H        18.3311101429       16.2232147338        4.8419645688
  H        16.1325586349       16.1745989008        6.0322601131
  H        16.9417862127       17.7133257023        1.2932492311
  H        52.3222713127       21.6732149803        6.2943734818
  H        52.0132259225       21.7020720729        9.4957483624
  H        49.0673514309       18.6079923264        5.2042017467
  H        13.2472679559       19.0165312276        7.9772057458
  H        29.9377822455       12.4730953366       12.2623411975
  H        28.8642930962       10.5452190693       13.4336607986
  H        25.2546653975       11.1935397861       11.1872120604
  H        26.3466877501       13.1105746510       10.0100254114
  H        27.1423586066       11.6884845300       14.7950204069
  H        30.9982686085       22.7735862980       12.0202817111
  H        32.0071159743       24.6501755423       13.3181248104
  H        35.6965814529       24.1385498267       11.1672309237
  H        34.6676073702       22.2684250677        9.8639941834
  H        33.6814050618       23.5711687970       14.7614008635
  H        25.7013633068        8.5993452244       11.4070688502
  H        30.9036307180       22.6634460650        3.9070200136
  H        31.9133242931       24.5392595622        2.6110060122
  H        35.5308905176       24.1683535508        4.9094825026
  H        34.5019431098       22.3019358505        6.2108208373
  H        33.6294727849       23.5601029876        1.2086479226
  H        40.6000327497       17.0959144559        4.6538980514
  H        32.5051144934       14.1493307650        8.2533838284
  H        29.8748297869       12.5740647666        3.8633708619
  H        28.8469235283       10.6725660124        2.6197795234
  H        25.2325453301       11.1392114869        4.9056603407
  H        26.2863192262       13.0234067302        6.1650120007
  H        27.1440459075       11.7022660819        1.2417082750
  H        33.3051450171       14.2205833407        6.4603889046
  H        33.4075032828       14.4041920767        9.5978719291
  H        32.1157264977       18.5071743417        5.1623812836
  H        30.2112271760       14.1825371961        8.0825773625
  H        16.1181361362        2.9632296694       12.1294442004
  H        14.9529545377        4.8203384490       13.3221885041
  H        17.3666653532        7.6858131955       11.2105449483
  H        18.5153873863        5.8181855098       10.0107460572
  H        16.7536347640        5.7396075869       14.7714854540
  H        44.8283465945       32.1402222234       11.9766338295
  H        45.9376602872       30.3413776377       13.3060854269
  H        43.6818019061       27.3781780614       11.1529623719
  H        42.5991280972       29.1899987528        9.8102921065
  H        44.2305593058       29.4368140254       14.7689051621
  H        14.8509349450        8.5459149433       11.3632919439
  H        44.9004180244       32.2339719639        3.9323852523
  H        46.0253650252       30.4129653338        2.6528711219
  H        43.7625880784       27.4840535440        4.8445263210
  H        42.6447715673       29.3177124941        6.1235364529
  H        44.2687740496       29.4705625674        1.2182079364
  H        35.0015663584       26.6311554823        4.6485618567
  H        36.6052201884       35.1339115014        8.1807460903
  H        16.1433999583        3.0129644460        3.9043685249
  H        14.9738492815        4.8563440556        2.6886029191
  H        17.3965263286        7.7471800254        4.7547653622
  H        18.5435647055        5.8931885923        5.9823938236
  H        16.7647534258        5.7555479660        1.2192968716
  H        36.2788600254       34.4820317344        6.2733795766
  H        36.3810223716       34.2089481450        9.4996817802
  H        40.5786452728       33.2013592054        5.1542162494
  H        17.4709853533        1.9467159330        7.9741009658
  H        29.0992841861       19.2767765046       12.5571747012
  H        28.7524927359       18.6908551388        3.8016893815
  H        32.2326350192       16.1865209463        3.6350032023
  H        31.4068964668       15.6204197415       12.5370949424
  H        27.9880877401       17.5618282261       14.4080925868
  H        29.3818926852       15.3144549747       14.4260827795
  H        32.2993047363       17.7875115449        1.0903435444
  H        30.3450927224       15.1260078133        2.4254603248
  H        32.6750127468       17.9879168280       13.9926725247
  H        18.8540088414        0.8690217904       12.3353345302
  H        40.5280841091       35.2289175611        3.9521538654
  H        42.3234279371       34.4182789065        3.5908355710
  H        22.0878533666        0.6920321096       12.3513234158
  H        11.5971166151       18.7128569018       12.3824197737
  H        52.2650976782       18.4309079381        3.6776047586
  H        49.2548536840       16.4770786829        3.5846764119
  H        10.1502655965       15.7981571103       12.2926499137
  H        50.8500203434       17.6925382028        3.9542355705
  H        10.0460828920       17.3944936368       12.0519861825
  H        20.2154885631        0.0022765943       12.0418781599
  H        39.1837069669       36.1243192392        3.6864097055
 Ni        30.6086259492       17.6736999766        2.7452310081
 Ni        30.9046292524       16.4186937456       -0.0799560485
 Ni        29.4648932568       18.1825498872        0.1712710200
 Ni        30.0533184960       17.3040369063       13.2373239650
  O        10.6499033814       14.3651235085        5.4858324757
  O        12.6131306339       14.6575409789        6.5839184329
  O        49.1478374462       16.8460030144        7.9898312583
  O        50.3502421711       20.9357671840        5.6481437995
  O        48.3485544777       20.5932548945        6.6659757068
  O        11.0515306491       17.0538989224        6.5006646546
  O        50.3210080851       20.8816212268       10.4067936700
  O        48.3467638702       20.5866913123        9.3271411011
  O        49.5435071427       18.2484108679       10.0682911352
  O        12.3588990799       18.6246016889        7.9997604290
  O        48.6932087071       14.1485905512        6.7512884417
  O         8.2098442047       14.2104461471        9.3225550307
  O        10.7353566425       14.5068185403       10.6643223780
  O        12.5717994225       14.5828584543        9.3284894517
  O        22.8446125570        2.0432446381        5.4870891835
  O        21.6055307179        3.5922432828        6.5896162594
  O        42.0579897524       34.1371074175        7.9789182423
  O        37.9812903816       33.1366159617        5.5724800557
  O        39.2171815449       31.5750926608        6.6657776547
  O        20.3082856177        1.0392753200        6.5020059940
  O        38.0243530796       33.1848829358       10.4156999032
  O        39.2183016383       31.5829504371        9.3275033106
  O        40.6521898494       33.7690882486       10.0601134696
  O        18.2557791765        1.3756951958        7.9968007391
  O        44.6222138871       35.1005180989        6.7587339538
  O        24.2053394088        0.0000443818        9.3208156330
  O        22.7530403361        2.0583589209       10.5840918469
  O        21.6243276192        3.5960406537        9.3424361888
  O        27.4932338524       18.7525511777        5.4958325613
  O        26.7618145344       16.9363976179        6.6546628544
  O        30.6592436853       19.3963816835        8.0644087522
  O        33.5815393682       16.2766655967        5.6616909173
  O        34.2732428160       18.1640795810        6.7359661779
  O        29.5761460600       17.0441089147        6.5829839280
  O        33.5553140832       16.3387303755       10.4136401379
  O        34.2991056147       18.2387092381        9.4058433427
  O        31.6506101662       18.3162869378       10.1522177059
  O        30.3173283652       15.1480139071        8.0862675044
  O        28.5506015776       21.0317347318        6.8372581392
  O        28.5157940272       20.9524588522        9.4081372440
  O        27.4603817308       18.6798058990       10.6595423788
  O        26.6946231746       16.9297999102        9.4134434874
  O        13.1490298018       18.6929645195       10.5875291835
  O        13.9197027000       16.9162447835        9.4051920870
  O        50.5958355169       19.3501915283        8.0206366448
  O        47.6826164952       16.3271194999       10.4172826875
  O        46.9503290811       18.1756197832        9.3255742307
  O        11.0695491954       17.0156499117        9.4896913272
  O        47.6758110507       16.3358354772        5.6529376802
  O        46.9264326697       18.2358654683        6.6639670764
  O        49.5684849147       18.3177249369        5.9823482474
  O        10.3185521168       15.1002484917        7.9971387233
  O        52.6707378484       21.0278810843        9.2418341652
  O        12.1468253081       20.8911546801        6.6732211171
  O        13.1080526363       18.6136750036        5.3256400920
  O        13.9570672168       16.9868778310        6.6655112884
  O        29.9949370603       14.4478005146       10.7343495445
  O        28.0903742754       14.6534334556        9.4969709852
  O        32.0765148215       16.8593247961        8.0737046442
  O        30.9637276438       20.9479172837       10.4121560497
  O        32.9444346061       20.6014053078        9.3385535183
  O        29.5647358986       17.0759675840        9.5774330105
  O        30.8517818201       20.8788362364        5.6536625763
  O        32.8698148635       20.5846256649        6.6652172524
  O        31.6795042221       18.2510473886        5.9918447816
  O        28.2947843351       18.6753926254        8.0734607883
  O        32.4901093228       14.2140926616        9.3292448203
  O        32.4036017397       14.2175784167        6.8233563409
  O        29.9182224416       14.4437080063        5.4867808753
  O        28.0393277894       14.5894929763        6.7523780013
  O        17.8891456871        1.9665379272       10.6628003368
  O        18.9561986190        3.5270923156        9.4079558831
  O        39.1685666959       34.1385701730        7.9971720278
  O        43.2801699452       33.0589285697       10.3316819867
  O        42.0344007571       31.5064480369        9.2415933297
  O        20.3175564670        1.0365661150        9.4802256164
  O        43.2760767280       33.1825676671        5.5749127831
  O        42.0052341886       31.5840619996        6.5829837618
  O        40.5789366566       33.7747192657        5.9358545991
  O        22.3672642200        1.3845389093        7.9979252283
  O        36.6728239104       35.0996507764        9.2333772986
  O        16.4455896321        0.0641598741        6.6682508503
  O        17.9364178451        2.0433571020        5.3263568236
  O        18.9190445147        3.5930929384        6.6659475412
  O        29.6814737202       18.6165498727        4.0868504842
  O        29.8246501694       18.8333861141       12.0772618447
  O        31.3429366313       16.3441898062        4.0016687155
  O        31.3451525448       16.4806545475       12.0769055943
  O        31.8129094513       17.0033431643        1.4203866070
  O        29.8680193560       14.9344585934        1.5846084703
  O        30.2445354160       15.7580606973       14.3283315020
  O        32.6613930861       18.6104579842       14.7443776131
  O        28.7924379577       18.1139678980       14.4259160779
  O        39.4568256452       35.2436899781        4.0019528796
  O        19.1419905898        0.0046595339       11.9904469331
  O        41.9695402342       35.1725979969        4.0871542220
  O        21.6913442093       -0.0694442599       11.8958493323
  O        51.3652401218       18.6142703025        4.0054397874
  O        10.7513074301       18.7471426808       11.9049182023
  O        50.0793994145       16.4128147450        4.0917747454
  O         9.5244565236       16.4830753360       11.9911555106
 Zr         9.2965618568       16.0527795183        6.1823675072
 Zr        49.8360130996       16.0068280860        9.7465698296
 Zr        22.0731795739        0.0296844540        6.1889838808
 Zr        42.4608117796       35.1533557676        9.8007134662
 Zr        29.6063183970       19.0669056378        6.2736111803
 Zr        29.5810096698       19.1772480275        9.8772801928
 Zr        11.0376360953       19.0521390389        9.8277498839
 Zr        11.0433883407       19.1549415848        6.2513201275
 Zr        31.3385404202       16.1076729072        9.8747347177
 Zr        31.3774850307       16.0060437237        6.2587438546
 Zr        18.6010359737       -0.0020128396        9.7636175991
 Zr        18.5064747249       -0.0082827395        6.2135233016
 Zr        12.3015673816       16.3234574038        7.9904361030
 Zr        48.6156981650       18.8330640797        8.0105061450
 Zr        20.3152292074        2.4731102479        7.9904898441
 Zr        40.6427441905       32.6864814382        7.9780802533
 Zr        28.3447844212       16.3328667900        8.0860440064
 Zr        32.6198530436       18.8364590437        8.0559427094
  H        31.7171975419       18.8670686117       14.7835667093
  H        29.1249276490       15.5660088848        1.6223677158
  H        30.0281035538       18.6839463902        1.6224029011
