     569
 i =      129, E =     -4729.4732255020
  C        11.8587950166       14.0536764295        5.7416432847
  C        12.4564253396       12.8908111556        5.0232695240
  C        11.7047311751       12.1718598681        4.0816337873
  C        12.2811180915       11.1096712413        3.3892652051
  C        13.6217151537       10.7399349452        3.6169426572
  C        14.3549170059       11.4435565014        4.5903508897
  C        13.7819944717       12.5084952459        5.2818965739
  C        14.2612121219        9.6492389239        2.8435598342
  C        14.2563906280        9.6570601781        1.4218564777
  C        13.7430964854       10.7591098205        0.6679287059
  C        49.1268445025       21.2330458766        5.8797466310
  C        48.5500797831       22.4009543664        5.1525507557
  C        49.3001791541       23.0683974801        4.1716959270
  C        48.7332654912       24.1075553724        3.4384932141
  C        47.4026783871       24.5090966152        3.6670064715
  C        46.6716098012       23.8600430648        4.6803133706
  C        47.2340515091       22.8151199440        5.4096587450
  C        46.7724871328       25.5868687413        2.8697604321
  C        46.7614928120       25.5573103889        1.4479938513
  C        47.2613275055       24.4421729358        0.7045006807
  C        14.8603038973        8.5707021785        0.7086012657
  C        14.8920392499        8.5973197980        3.5202122033
  C        49.1134545274       21.2033182992       10.1453483083
  C        48.5281269283       22.3647547388       10.8725281675
  C        49.2673646045       23.0254399522       11.8654527496
  C        48.6910823896       24.0600281618       12.5969183235
  C        47.3607066598       24.4568885522       12.3586316956
  C        46.6402717685       23.8120009936       11.3351173093
  C        47.2137740034       22.7760422898       10.6033543220
  C        46.7222762969       25.5318966934       13.1496499085
  C        46.7338584900       25.5282108132       14.5713613582
  C        47.2491224314       24.4289127484       15.3277377367
  C        40.6185280205       17.0852495109       15.3070260114
  C        40.6287164401       17.0942737820       12.4974162914
  C        11.8830294300       14.0866342520       10.2854875296
  C        12.4723070082       12.9107635800       10.9896427052
  C        11.7146789722       12.1775302743       11.9156408218
  C        12.2811921561       11.0950485174       12.5840780179
  C        13.6200245327       10.7213190594       12.3523362000
  C        14.3581002692       11.4368939701       11.3916193301
  C        13.7927541355       12.5181032304       10.7189164155
  C        14.2535974178        9.6245695403       13.1227761816
  C        14.2523510502        9.6445649171       14.5446169846
  C        13.7424396301       10.7535054156       15.2916734590
  C        22.5110494354        3.2437908515        5.7531650186
  C        23.2241080519        4.3487764546        5.0530656234
  C        24.2190189767        4.0687579774        4.1048184666
  C        24.8442049783        5.1085709426        3.4218489100
  C        24.4896264358        6.4498970235        3.6673360092
  C        23.5231612216        6.7213798956        4.6528045908
  C        22.8934001513        5.6834917078        5.3341917656
  C        25.0929173681        7.5570568015        2.8919062183
  C        25.0649833587        7.5511012621        1.4705034832
  C        24.3641423986        6.5514236414        0.7237778403
  C        38.2965914785       31.9308472106        5.8559331977
  C        37.5503857474       30.8432820084        5.1607640909
  C        36.5798516129       31.1517843434        4.1954411752
  C        35.9480610653       30.1342334089        3.4865288459
  C        36.2725968739       28.7839583443        3.7211227759
  C        37.2105135193       28.4825409192        4.7261940609
  C        37.8463343757       29.4991226900        5.4343950064
  C        35.6649144321       27.6978667830        2.9199887456
  C        35.7080600613       27.7165962391        1.4991148771
  C        36.4254497032       28.7176487338        0.7708686158
  C        25.6857912590        8.6227602146        0.7514506041
  C        25.6879404799        8.6321627293        3.5637776256
  C        38.3338735646       31.9634425197       10.1615297590
  C        37.6223967183       30.8934107103       10.9175923339
  C        36.6924352423       31.2085770240       11.9200746718
  C        36.0854910547       30.1953657131       12.6594056329
  C        36.3944427244       28.8416985260       12.4193209961
  C        37.3072926412       28.5362480575       11.3912689740
  C        37.9159146871       29.5460605000       10.6529244717
  C        35.7758834396       27.7467774962       13.2008023834
  C        35.7644195648       27.7419607074       14.6229008534
  C        36.4516413441       28.7307215060       15.3945892773
  C        46.1358953341       26.6208828630       15.2814931252
  C        46.0884420545       26.5803235320       12.4735917689
  C        22.4607252448        3.2561226674       10.2576337330
  C        23.1539542525        4.3654163203       10.9801099660
  C        24.1567351896        4.0807428258       11.9206145975
  C        24.7835189154        5.1118466266       12.6162229498
  C        24.4276767881        6.4572633469       12.3940335586
  C        23.4481005713        6.7352059549       11.4219055629
  C        22.8166919930        5.7043946349       10.7267237942
  C        25.0563135153        7.5562389185       13.1689055814
  C        25.0462371504        7.5505528568       14.5916581744
  C        24.3532081900        6.5524744092       15.3469185021
  C        26.6109364746       17.8540846849        5.7866320825
  C        25.3042068642       17.8939252447        5.0627610161
  C        25.0377240714       18.8938504406        4.1138231124
  C        23.8263490435       18.9089449142        3.4255243544
  C        22.8423819926       17.9276471518        3.6632596138
  C        23.1041541418       16.9499141064        4.6419267985
  C        24.3183879610       16.9291143928        5.3277394752
  C        21.5724371078       17.9131727852        2.8922203003
  C        21.5820393298       17.9065235046        1.4692011339
  C        22.7926657393       17.7850734752        0.7166713972
  C        34.4406361212       17.1952356483        5.9188448560
  C        35.7337197130       17.1418427869        5.1769554628
  C        35.9309538908       16.1777011564        4.1757524762
  C        37.1103962623       16.1613870097        3.4368649795
  C        38.1254005524       17.1078231132        3.6782297979
  C        37.9311735866       18.0514054345        4.7054615447
  C        36.7488179078       18.0736533783        5.4417223939
  C        39.3771695843       17.1142378858        2.8872738724
  C        39.3682368097       17.1188272329        1.4649503977
  C        38.1591957727       17.2375968875        0.7098481532
  C        20.3407759598       17.9369455761        0.7514509741
  C        20.3426968640       17.9087869250        3.5657913402
  C        34.4410816717       17.2402468323       10.1842397031
  C        35.7433600795       17.1335591211       10.9002964738
  C        35.9333920748       16.1692847001       11.9017723076
  C        37.1227307852       16.1355423751       12.6254616119
  C        38.1498613614       17.0656341261       12.3702081563
  C        37.9653194878       18.0008071972       11.3338405886
  C        36.7763687742       18.0393391915       10.6119003340
  C        39.3980692173       17.0821410219       13.1650310244
  C        39.3787189412       17.1032671397       14.5869737464
  C        38.1642813025       17.2290396040       15.3329379089
  C        35.1181685555       26.6668796644       15.3194271233
  C        35.1912056072       26.6779008831       12.5099787615
  C        26.6495094907       17.8288016587       10.3730935442
  C        25.3332342128       17.8926469656       11.0756848780
  C        25.0680177742       18.8926098831       12.0237473227
  C        23.8373804310       18.9312651198       12.6764134445
  C        22.8415373676       17.9693407231       12.4084479951
  C        23.1033322023       16.9954661160       11.4271296218
  C        24.3318668585       16.9561947763       10.7708742007
  C        21.5666565401       17.9529042759       13.1674845721
  C        21.5786398174       17.9256813488       14.5896613740
  C        22.7903455793       17.7936575099       15.3401806158
  C        14.0539046657       17.8340535993       10.2853364039
  C        15.3678410341       17.9044404561       10.9984461858
  C        15.6301166404       18.9165072303       11.9357576546
  C        16.8452329454       18.9489056306       12.6192718478
  C        17.8366346170       17.9725395822       12.3901641663
  C        17.5802669230       16.9866390622       11.4178842057
  C        16.3644353173       16.9497199875       10.7356790926
  C        19.1067950679       17.9592106462       13.1636011868
  C        19.0963028180       17.9437077868       14.5870705411
  C        17.8840460784       17.8409023563       15.3399510399
  C        46.8020889830       17.2156694812       10.1565266477
  C        45.5080881285       17.1440921385       10.8958292043
  C        45.3033059477       16.1599254645       11.8755240877
  C        44.1189395614       16.1308324910       12.6072180188
  C        43.1079873574       17.0856292725       12.3821678737
  C        43.3092349750       18.0482461266       11.3742686335
  C        44.4945840450       18.0813549222       10.6433109309
  C        41.8547187711       17.0894565574       13.1724573617
  C        41.8636299066       17.0962388859       14.5947439107
  C        43.0743536760       17.1969969950       15.3497554039
  C        20.3380275500       17.9453360726       15.3055422700
  C        20.3379612574       17.9484909797       12.4913835013
  C        46.7852148689       17.2326239627        5.8857713353
  C        45.4844963954       17.1288899807        5.1644031643
  C        45.2676906720       16.1299820437        4.2028558844
  C        44.0809405679       16.1018831542        3.4742087634
  C        43.0804821044       17.0699756800        3.6888382992
  C        43.2888128793       18.0402923814        4.6870711550
  C        44.4764132020       18.0744462051        5.4113367732
  C        41.8322495279       17.0875270339        2.8938286940
  C        41.8523803563       17.0937827082        1.4723796824
  C        43.0691241572       17.1928399504        0.7268015837
  C        46.1535972194       26.6372709455        0.7262614238
  C        46.1626107511       26.6560173934        3.5359104354
  C        14.0443776857       17.8273190120        5.7036273597
  C        15.3610389283       17.8918491168        5.0020052345
  C        15.6378447715       18.9098311352        4.0770262816
  C        16.8644503479       18.9428376336        3.4167974975
  C        17.8432546944       17.9567973127        3.6548629092
  C        17.5713530280       16.9640613198        4.6140945227
  C        16.3470410625       16.9308842560        5.2782296280
  C        19.1143611704       17.9359911178        2.8904837250
  C        19.1005647802       17.9307529608        1.4681603498
  C        17.8862488615       17.8351155359        0.7166305317
  C        28.8053354548       14.0914122515       10.3924087277
  C        28.1939603267       12.9188953858       11.0785742757
  C        28.9055261415       12.1993416720       12.0501809410
  C        28.3054218785       11.1246583499       12.7006557219
  C        26.9789970428       10.7478347951       12.4072024443
  C        26.2905462548       11.4480288598       11.4000159179
  C        26.8887637278       12.5214512069       10.7457225372
  C        26.3068954236        9.6704417729       13.1680241010
  C        26.2892633753        9.6987275834       14.5893389961
  C        26.7871744614       10.8133937990       15.3364093707
  C        32.1735560611       21.2725264296       10.1732798553
  C        32.7636891604       22.4433422644       10.8842210314
  C        32.0027339840       23.1631899454       11.8189917259
  C        32.5783651566       24.1986565090       12.5480131416
  C        33.9296894049       24.5450577248       12.3587892199
  C        34.6731909886       23.8502236741       11.3868543334
  C        34.1002671906       22.8077840899       10.6615436124
  C        34.5590535873       25.6156365191       13.1634927386
  C        34.5281783168       25.5877615613       14.5841767718
  C        33.9997132692       24.4768133694       15.3145155189
  C        25.6807850617        8.6191972001       15.3067763628
  C        25.6730540181        8.6180898326       12.4938945902
  C        32.0815468141       21.2072517764        5.8822879849
  C        32.6499297507       22.3730997141        5.1446660313
  C        31.9118024493       23.0200194334        4.1417029777
  C        32.4806756051       24.0615681743        3.4111094064
  C        33.8013654648       24.4832605636        3.6624673885
  C        34.5209183918       23.8485566129        4.6934461081
  C        33.9569685409       22.8045189277        5.4207951897
  C        34.4397386737       25.5694164188        2.8828731598
  C        34.4673004936       25.5643183550        1.4606870130
  C        33.9712564814       24.4651984849        0.6911150944
  C        40.6126494950       17.0887213029        0.7523102615
  C        40.6032788577       17.1149006205        3.5625238193
  C        28.7336124107       14.0612441208        5.8205778076
  C        28.1221135159       12.9201293911        5.0808612966
  C        28.8589172662       12.2164519770        4.1157101750
  C        28.2748022899       11.1637871407        3.4159178510
  C        26.9393498357       10.7857960067        3.6594345873
  C        26.2193668974       11.4759722706        4.6525518179
  C        26.8006475922       12.5315639668        5.3517398566
  C        26.2973997109        9.6959135240        2.8867727346
  C        26.2876913711        9.7105323688        1.4652420101
  C        26.7856946766       10.8198734577        0.7124404207
  C        18.1353476642        3.1811101244       10.3171819107
  C        17.4060764014        4.2782940470       11.0158064088
  C        16.3903382753        3.9999222620       11.9433075981
  C        15.7425936801        5.0398937076       12.6067812279
  C        16.0944892956        6.3836224527       12.3670924855
  C        17.0839005159        6.6531565388       11.4033616988
  C        17.7330171772        5.6158248284       10.7383285176
  C        15.4701202224        7.4912973980       13.1301154310
  C        15.4854335279        7.4906229750       14.5518230097
  C        16.1870996316        6.4970840004       15.3049897088
  C        42.9459775643       31.8595503985       10.0728740321
  C        43.6464789969       30.7719257553       10.8167648845
  C        44.5916660661       31.0933493133       11.8031410868
  C        45.1975074412       30.0878589986       12.5507748378
  C        44.8715829997       28.7347109820       12.3356351484
  C        43.9462020954       28.4202825201       11.3220213222
  C        43.3372758331       29.4253609298       10.5739853216
  C        45.4891800259       27.6554392992       13.1388520136
  C        45.4932826818       27.6810608958       14.5605560404
  C        44.8062155976       28.6891051638       15.3072037111
  C        14.8564468372        8.5631089334       15.2641717958
  C        14.8748144749        8.5630339264       12.4515016789
  C        42.9465438179       31.9616044446        5.8089312824
  C        43.6918347407       30.8854947650        5.0955247552
  C        44.6562850271       31.1914283034        4.1230744091
  C        45.2778862351       30.1718507885        3.4054025289
  C        44.9543552215       28.8214840706        3.6431714397
  C        44.0210875881       28.5238139003        4.6541658066
  C        43.3927588684       29.5405597293        5.3663208842
  C        45.5633705456       27.7240846845        2.8578902980
  C        45.5337030605       27.7174567013        1.4365815803
  C        44.8274564753       28.7077188255        0.6835994925
  C        35.0878919240       26.6543564113        0.7639363177
  C        35.0499383241       26.6242979527        3.5731063148
  C        18.1485841978        3.2471434124        5.7065512404
  C        17.4300913293        4.3439611877        4.9972288705
  C        16.4148117747        4.0527551454        4.0737084896
  C        15.7665479378        5.0834282087        3.3983505217
  C        16.1213096650        6.4286479447        3.6210486252
  C        17.1128008952        6.7119582430        4.5782111046
  C        17.7604297898        5.6830115087        5.2579631016
  C        15.4908105196        7.5243553595        2.8486237129
  C        15.4966046160        7.5076522457        1.4274923256
  C        16.1933863528        6.5059579484        0.6808017301
  H        10.6725692658       12.4659246481        3.9046830878
  H        11.6947912970       10.5511338618        2.6627984469
  H        15.3919765668       11.1690190554        4.7720155658
  H        14.3514403175       13.0716996504        6.0173650315
  H        13.3760580199       11.6312365786        1.2012173939
  H        50.3229272923       22.7484303018        3.9870492726
  H        49.3198061026       24.6229159760        2.6810223165
  H        45.6420432587       24.1606581054        4.8633246654
  H        46.6629479547       22.2897121630        6.1715719944
  H        47.6296991981       23.5757225648        1.2461859462
  H        14.8724783921        8.5886446548        4.6085215239
  H        50.2873791478       22.7025089016       12.0603933150
  H        49.2694871685       24.5754349243       13.3604458903
  H        45.6108689339       24.1092491681       11.1460574775
  H        46.6528845534       22.2538392844        9.8318655979
  H        47.6077888884       23.5517538477       14.7968274228
  H        40.6325543543       17.0550221995       11.4097746297
  H        48.6870163255       14.0949508122        7.7999214998
  H        10.6811898156       12.4665973109       12.0929550309
  H        11.6893162978       10.5246193937       13.2966781931
  H        15.3935675602       11.1590486398       11.2058195694
  H        14.3652153101       13.0875820699        9.9905654185
  H        13.3755001869       11.6220577462       14.7530131095
  H        47.9301290940       14.2185045017        9.7108105866
  H        47.7799855880       14.3736249304        6.4951522506
  H        49.0828463612       18.5515391968       10.8671331591
  H        10.4159560459       14.1344199457        7.9988360604
  H        24.4798471791        3.0302236488        3.9136239537
  H        25.6161790314        4.8920401723        2.6866128460
  H        23.2427336742        7.7543127042        4.8482155825
  H        22.1248096696        5.8829887525        6.0768522886
  H        23.8038454184        5.7935216812        1.2634607102
  H        36.3472918332       32.1961596261        4.0014760940
  H        35.1971953463       30.3760039391        2.7374826615
  H        37.4672502244       27.4421224040        4.9145557169
  H        38.5975383335       29.2753721160        6.1881640556
  H        36.9864268875       29.4649783846        1.3243921621
  H        25.7234409920        8.6140438734        4.6515500130
  H        36.4646543118       32.2539517200       12.1156682098
  H        35.3565870267       30.4451382053       13.4272256304
  H        37.5594887465       27.4950824326       11.2013089903
  H        38.6410376369       29.3156900299        9.8761827023
  H        37.0337525128       29.4874312199       14.8764215033
  H        46.1099697263       26.5877356948       11.3855579323
  H        44.6683916907       35.1162358314        7.8139137553
  H        24.4356873510        3.0428889727       12.0881051763
  H        25.5646415991        4.8841445850       13.3384262229
  H        23.1617898192        7.7693438365       11.2413877434
  H        22.0445161005        5.9162123439        9.9907516592
  H        23.7840353863        5.7957420806       14.8148628310
  H        44.9541399368       34.3906574652        9.6953604303
  H        44.9022398012       34.2069587113        6.4905962705
  H        40.6675353060       33.2100775248       10.8536725036
  H        23.1503621357        1.9579787706        8.0053044445
  H        25.7906672272       19.6564910870        3.9294105453
  H        23.6272031399       19.6904494174        2.6953782917
  H        22.3577164507       16.1820535277        4.8350242148
  H        24.5304418162       16.1592416755        6.0660501406
  H        23.7293411402       17.6526560049        1.2507238945
  H        35.1421031255       15.4540880959        3.9844264134
  H        37.2602209078       15.4066920385        2.6679767911
  H        38.7063545016       18.7905862921        4.8967061856
  H        36.5830235222       18.8181093408        6.2170404367
  H        37.2205257120       17.3674106845        1.2410250607
  H        20.3417044083       17.9371154663        4.6540488506
  H        35.1297203834       15.4677871098       12.1142384330
  H        37.2670521810       15.3847851464       13.3992389615
  H        38.7513309430       18.7248532853       11.1296208424
  H        36.6151065667       18.7809365262        9.8332936719
  H        37.2291634131       17.3523578264       14.7943094274
  H        35.1806126632       26.7016085871       11.4219710310
  H        28.5021768406       21.0945957444        7.8760956823
  H        25.8355176304       19.6359732891       12.2289347512
  H        23.6333744217       19.7124038170       13.4056520420
  H        22.3460583962       16.2443343295       11.2118855060
  H        24.5449536068       16.1922704123       10.0270325394
  H        23.7256280777       17.6669315742       14.8032741639
  H        28.9610002332       21.7325502112        9.7748191398
  H        29.1863064040       21.7197429360        6.5497041647
  H        32.1223773006       18.5591318195       10.9912104178
  H        27.4003110015       19.0663065577        8.0812427254
  H        14.8700757994       19.6736045469       12.1158928792
  H        17.0396110307       19.7396729587       13.3408094845
  H        18.3325194109       16.2235911982       11.2282456625
  H        16.1588420864       16.1731294059       10.0026239015
  H        16.9444480370       17.7348614785       14.8056343867
  H        46.0898792948       15.4314410784       12.0576730857
  H        43.9626799671       15.3604804418       13.3592151051
  H        42.5371526927       18.7936113042       11.1948923205
  H        44.6650606761       18.8397104210        9.8826577386
  H        44.0145338761       17.3089711813       14.8173910985
  H        20.3400699260       17.9871049039       11.4033844863
  H        46.0444895429       15.3888836456        4.0287755600
  H        43.9159961991       15.3253569027        2.7304282106
  H        42.5222715921       18.7929311996        4.8595097153
  H        44.6568807789       18.8421196930        6.1598179951
  H        44.0053889230       17.3006737902        1.2667799298
  H        46.1994588518       26.6825044195        4.6233574978
  H        52.7410965350       21.0625315367        8.1947641101
  H        14.8825016087       19.6707854281        3.8933194430
  H        17.0779060530       19.7376262209        2.7052558145
  H        18.3168329292       16.1948510193        4.8051987676
  H        16.1241726782       16.1529109142        6.0044498483
  H        16.9481697764       17.7244751675        1.2524331037
  H        52.3221876309       21.6729184945        6.2941995391
  H        52.0125499915       21.7013624500        9.4956735732
  H        49.0677754710       18.6076891500        5.2041845016
  H        13.2478492251       19.0162947869        7.9754063512
  H        29.9243720664       12.4981691779       12.2857516497
  H        28.8595152210       10.5654347372       13.4513045281
  H        25.2659792939       11.1669450526       11.1652374008
  H        26.3542025516       13.0827648486        9.9834119144
  H        27.1463273900       11.6852280407       14.7980892981
  H        30.9587251427       22.8976756268       11.9659483719
  H        31.9853053193       24.7545319444       13.2709403697
  H        35.7184713294       24.1116233104       11.2352085307
  H        34.6784187152       22.2437140319        9.9332435918
  H        33.6423452586       23.6116833569       14.7633352127
  H        25.7070235223        8.5971667790       11.4060351386
  H        30.8984016101       22.6820961904        3.9365197113
  H        31.9009432426       24.5639704558        2.6398406177
  H        35.5436802256       24.1614261197        4.8930950633
  H        34.5197315587       22.2923611474        6.1975747354
  H        33.5929016035       23.5905211553        1.2125361436
  H        40.5999564145       17.0825787841        4.6503826142
  H        32.5127580171       14.1566099944        8.2619226699
  H        29.8923197626       12.5017804223        3.9328943494
  H        28.8530434490       10.6154259481        2.6754263049
  H        25.1858576459       11.1963334585        4.8463088182
  H        26.2415417719       13.0812692614        6.1052070697
  H        27.1425679646       11.6964066570        1.2455195298
  H        33.2957760865       14.1884553824        6.4388255975
  H        33.4063017851       14.3877646229        9.6145920696
  H        32.1191077294       18.5305966308        5.1057283727
  H        30.2343650960       14.1961651738        8.0825464670
  H        16.1182956257        2.9634160109       12.1297068141
  H        14.9531237786        4.8205354937       13.3224247650
  H        17.3663609744        7.6860315274       11.2102896106
  H        18.5150970092        5.8185074424       10.0105377376
  H        16.7537429627        5.7398064467       14.7714942109
  H        44.8276156533       32.1404682589       11.9775655021
  H        45.9371551242       30.3417404784       13.3068900670
  H        43.6840536811       27.3781381776       11.1515191121
  H        42.6011553621       29.1898959397        9.8088817853
  H        44.2309407780       29.4369495570       14.7689271138
  H        14.8510790860        8.5462781127       11.3632810644
  H        44.8996854703       32.2341161108        3.9314735063
  H        46.0246944164       30.4131379581        2.6520870864
  H        43.7643673264       27.4840611106        4.8459339106
  H        42.6464776998       29.3176927860        6.1249577116
  H        44.2690054870       29.4706622962        1.2181593568
  H        35.0014560757       26.6339387830        4.6603465768
  H        36.6052890780       35.1344242837        8.1803249845
  H        16.1436428354        3.0131994359        3.9040094251
  H        14.9741532596        4.8566627811        2.6883195276
  H        17.3964405970        7.7474004045        4.7550341086
  H        18.5434229014        5.8934426700        5.9826049525
  H        16.7649516974        5.7558153103        1.2192350987
  H        36.2790631801       34.4825013880        6.2732520504
  H        36.3812373911       34.2089519177        9.4988780043
  H        40.5792834560       33.2019416979        5.1540270939
  H        17.4707677616        1.9477825707        7.9741090458
  H        29.3373881531       19.1502969062       12.9832103075
  H        28.7822367398       19.1731802102        3.7278111079
  H        30.6749728058       15.3205276459        3.9503594977
  H        31.0286684786       15.4402806024       12.4530814599
  H        28.1782988898       17.9977462434       14.4857195072
  H        29.2707186458       15.2500157221       14.8457006385
  H        32.2248619299       16.1897895008        2.1410520690
  H        18.8536567541        0.8691996718       12.3351997450
  H        40.5281867478       35.2289525155        3.9520603415
  H        42.3240647100       34.4189812189        3.5903936248
  H        22.0878504904        0.6918234202       12.3518521313
  H        11.5972049257       18.7127003674       12.3826537808
  H        52.2651353155       18.4315583181        3.6776702207
  H        49.2551326050       16.4769013766        3.5847830821
  H        10.1500873814       15.7981185970       12.2929503999
  H        50.8502841769       17.6924341507        3.9541978920
  H        10.0459992313       17.3942942081       12.0520698920
  H        20.2148991749        0.0024073801       12.0419582684
  H        39.1838766808       36.1244321422        3.6861722968
 Ni        30.1411372954       17.4029786058        2.9948757471
 Ni        31.1619064959       16.0752346437       -0.0776900703
 Ni        29.7139009127       17.8544871734        0.3363615395
 Ni        30.3142319520       17.1984298698       13.7345672993
  O        10.6500052618       14.3651163015        5.4858929465
  O        12.6132472823       14.6576596171        6.5840053737
  O        49.1478364841       16.8459346135        7.9898185939
  O        50.3503138400       20.9357198556        5.6481691257
  O        48.3485738549       20.5932382593        6.6660026139
  O        11.0521085221       17.0535160529        6.5008619415
  O        50.3212811369       20.8815921368       10.4068211576
  O        48.3468539807       20.5867216651        9.3271761825
  O        49.5438253003       18.2483865003       10.0682574697
  O        12.3594260261       18.6245282886        7.9999499167
  O        48.6932272101       14.1486403882        6.7512553288
  O         8.2098937794       14.2104415221        9.3225778099
  O        10.7354645380       14.5068122944       10.6643104006
  O        12.5719621891       14.5829820613        9.3285095927
  O        22.8443338670        2.0427327422        5.4873789864
  O        21.6050567295        3.5918471249        6.5901523337
  O        42.0583416649       34.1374945181        7.9789737591
  O        37.9811799046       33.1390189040        5.5732660666
  O        39.2177030811       31.5761764048        6.6665004984
  O        20.3085256493        1.0396600688        6.5021401759
  O        38.0252929844       33.1869763241       10.4150269199
  O        39.2192232829       31.5839239445        9.3270571234
  O        40.6523588041       33.7694861205       10.0601897060
  O        18.2553052484        1.3764196319        7.9967877307
  O        44.6222328346       35.1005401088        6.7587538091
  O        24.2054216749        0.0000212838        9.3207818054
  O        22.7529919232        2.0580295963       10.5839005437
  O        21.6243262408        3.5959726638        9.3424633893
  O        27.4837249941       18.7500313648        5.4992323753
  O        26.7655101152       16.9304363226        6.6575638664
  O        30.6651388451       19.4096573956        8.0612810522
  O        33.5850106205       16.2795194601        5.6664206627
  O        34.2738641491       18.1692526216        6.7355219687
  O        29.5752068818       17.0617772388        6.5785676906
  O        33.5548335237       16.3444485102       10.4151699218
  O        34.2968508662       18.2477860005        9.4082734362
  O        31.6464209061       18.3196963579       10.1789798689
  O        30.3282634666       15.1630302085        8.0901457484
  O        28.5506221737       21.0359211233        6.8316620300
  O        28.5131076393       20.9538583678        9.4046497609
  O        27.5835927780       18.6150964628       10.7478960873
  O        26.7317875878       16.9886893369        9.4099592032
  O        13.1515615774       18.6925186450       10.5882161150
  O        13.9221464177       16.9168645285        9.4065972938
  O        50.5960881639       19.3500452121        8.0211524324
  O        47.6829528647       16.3269761833       10.4171941632
  O        46.9504183745       18.1755284997        9.3255279507
  O        11.0702318387       17.0153122390        9.4896667897
  O        47.6757773970       16.3358976832        5.6527990500
  O        46.9259795715       18.2357635942        6.6636327992
  O        49.5686855879       18.3176816787        5.9825720993
  O        10.3187141713       15.1002816569        7.9971195828
  O        52.6707859422       21.0278264450        9.2418825648
  O        12.1468352024       20.8910107867        6.6732287294
  O        13.1085944728       18.6134509870        5.3252088928
  O        13.9580410850       16.9871484198        6.6645697223
  O        29.9915793665       14.4414667025       10.7306200808
  O        28.0887865452       14.6564759045        9.4946718381
  O        32.0971703114       16.9020745280        8.0848830937
  O        30.9679937371       20.9512386539       10.4898564784
  O        32.9100761253       20.6606393656        9.3333057043
  O        29.5716343518       17.0825827316        9.5803759064
  O        30.8579403596       20.8948536524        5.6630255832
  O        32.8741640373       20.5829771779        6.6650798930
  O        31.6714912412       18.2474603309        5.9202914482
  O        28.2925676320       18.6826304651        8.0720137770
  O        32.4890586045       14.2172282425        9.3338773952
  O        32.4050526827       14.2148543693        6.8262026666
  O        29.9116682345       14.4316367261        5.4931859880
  O        28.0379125135       14.5870843627        6.7553786245
  O        17.8891549624        1.9666683633       10.6627675918
  O        18.9561980211        3.5271924692        9.4080259510
  O        39.1686734885       34.1388962185        7.9970750729
  O        43.2802016451       33.0589766893       10.3317247112
  O        42.0345202926       31.5064433196        9.2416322808
  O        20.3178024168        1.0369076960        9.4801564546
  O        43.2761002865       33.1825793601        5.5748714789
  O        42.0052710454       31.5840876408        6.5829391813
  O        40.5790341933       33.7750570055        5.9358204424
  O        22.3673586628        1.3845779643        7.9979982198
  O        36.6727163183       35.0998427974        9.2331280316
  O        16.4456150805        0.0645202055        6.6684022988
  O        17.9364896105        2.0434556930        5.3263596575
  O        18.9189720387        3.5931734278        6.6659289923
  O        29.6649560688       18.9602769678        4.0789525257
  O        29.8639481205       19.3540491105       12.1580833351
  O        31.2266200776       16.1220454549        4.0716630443
  O        31.2547184857       16.3412659368       12.1471583627
  O        32.4831608300       16.5698821634        1.2591531131
  O        30.1965931356       15.3847130193       14.5686826629
  O        29.0677361319       18.3866693659       14.5871131740
  O        39.4568652580       35.2438318995        4.0019430893
  O        19.1414970925        0.0046732559       11.9905452841
  O        41.9695552394       35.1727571902        4.0870812458
  O        21.6912812484       -0.0693659988       11.8959377274
  O        51.3651530807       18.6143355695        4.0055864261
  O        10.7514975280       18.7471449033       11.9049122373
  O        50.0797154362       16.4127986662        4.0918419181
  O         9.5243670946       16.4830213121       11.9912434118
 Zr         9.2967931324       16.0527251008        6.1824491006
 Zr        49.8362282269       16.0067185911        9.7464453171
 Zr        22.0735467092        0.0300832293        6.1888130258
 Zr        42.4612023437       35.1539361830        9.8010438484
 Zr        29.5923545418       19.0768182390        6.2345338023
 Zr        29.5878162939       19.1866076698        9.8098441984
 Zr        11.0387737001       19.0514588790        9.8281111220
 Zr        11.0437798004       19.1545114644        6.2516050951
 Zr        31.3397752296       16.1070029493        9.9415663344
 Zr        31.4044325240       16.0131392691        6.2843728119
 Zr        18.6013099252       -0.0006760814        9.7631364052
 Zr        18.5069610133       -0.0068214535        6.2136831013
 Zr        12.3030378337       16.3237525741        7.9908675016
 Zr        48.6158151739       18.8327899225        8.0105622819
 Zr        20.3153379475        2.4739049565        7.9906569280
 Zr        40.6440732275       32.6877004477        7.9779828421
 Zr        28.3575208118       16.3383260579        8.0779383246
 Zr        32.6328993114       18.8401162473        8.0439796671
  H        29.1573099521       17.7880583734        1.8306470812
  H        30.3795920001       20.1682840491       12.3140347429
  H        32.2116482514       17.5155442675        1.3851070212
