     569
 i =       56, E =     -4729.5173041681
  C        11.8587633303       14.0535418888        5.7416143926
  C        12.4562830534       12.8906284585        5.0233380678
  C        11.7046079380       12.1717675740        4.0816029457
  C        12.2809782747       11.1095718201        3.3892433369
  C        13.6215387016       10.7397151225        3.6170014821
  C        14.3546865777       11.4432150135        4.5905454789
  C        13.7817954288       12.5081672982        5.2820880129
  C        14.2610552554        9.6490584218        2.8435869169
  C        14.2562167294        9.6569028606        1.4218841105
  C        13.7429191369       10.7589484322        0.6679532312
  C        49.1268075621       21.2331490108        5.8797342835
  C        48.5500449981       22.4010767868        5.1526176597
  C        49.3000817316       23.0684214875        4.1716452501
  C        48.7331504486       24.1075604204        3.4384394240
  C        47.4026056307       24.5091930792        3.6670488097
  C        46.6716361801       23.8602813117        4.6805238341
  C        47.2340855675       22.8153720447        5.4098739399
  C        46.7723824665       25.5869130966        2.8697785930
  C        46.7613819860       25.5573046289        1.4480152464
  C        47.2612400774       24.4421723229        0.7045283428
  C        14.8602160570        8.5706027443        0.7086149167
  C        14.8919727964        8.5971800460        3.5202286550
  C        49.1133835050       21.2033529885       10.1453323463
  C        48.5280783766       22.3647772360       10.8725012170
  C        49.2672590926       23.0253539972       11.8655429123
  C        48.6909669572       24.0599328844       12.5970090987
  C        47.3606328575       24.4568928051       12.3586415247
  C        46.6402862847       23.8121325515       11.3349782706
  C        47.2137893419       22.7761914634       10.6032017840
  C        46.7221854982       25.5318796052       13.1496623532
  C        46.7337512597       25.5281745220       14.5713727906
  C        47.2490368800       24.4288958099       15.3277649062
  C        40.6211472971       17.0853108506       15.3063943461
  C        40.6323013879       17.1028144651       12.4966679809
  C        11.8830016869       14.0865041167       10.2854861982
  C        12.4722070614       12.9106115841       10.9895643766
  C        11.7146970478       12.1775708570       11.9158229588
  C        12.2812236907       11.0950970557       12.5842472016
  C        13.6199803219       10.7211762083       12.3523062010
  C        14.3578907081       11.4365049246       11.3912671022
  C        13.7925336859       12.5177000682       10.7185630762
  C        14.2535928258        9.6244816892       13.1227754867
  C        14.2522718488        9.6444693328       14.5446200208
  C        13.7423117182       10.7533765815       15.2916972102
  C        22.5121702036        3.2434955241        5.7538129790
  C        23.2281569089        4.3471580893        5.0552721010
  C        24.2233624189        4.0647942801        4.1079419957
  C        24.8515122352        5.1030486260        3.4254607046
  C        24.4997137985        6.4450891149        3.6706530338
  C        23.5333014275        6.7188915617        4.6555276170
  C        22.9004321885        5.6825684188        5.3364193477
  C        25.1040421493        7.5511717374        2.8945377912
  C        25.0704590360        7.5466566052        1.4733944178
  C        24.3680981798        6.5470763288        0.7280261215
  C        38.2977591428       31.9295010411        5.8539021450
  C        37.5541928693       30.8414379866        5.1550966693
  C        36.5872564794       31.1498463567        4.1859803368
  C        35.9556473782       30.1325432204        3.4761876476
  C        36.2762483898       28.7815494454        3.7129272756
  C        37.2120286162       28.4803811433        4.7203436148
  C        37.8476275960       29.4967882221        5.4295239300
  C        35.6651979889       27.6950721706        2.9137250651
  C        35.7040804523       27.7121372397        1.4922974160
  C        36.4199765626       28.7113904575        0.7600534299
  C        25.6874743384        8.6199364718        0.7536764386
  C        25.7042042780        8.6237826648        3.5653098049
  C        38.3311834838       31.9613706113       10.1611756878
  C        37.6145373829       30.8901320477       10.9138727644
  C        36.6825704149       31.2042696475       11.9151923775
  C        36.0703643101       30.1907565130       12.6506117911
  C        36.3747376804       28.8360213134       12.4089749162
  C        37.2890018037       28.5316319603       11.3815662051
  C        37.9031506725       29.5418930244       10.6472167355
  C        35.7538622697       27.7411319861       13.1914341929
  C        35.7486656327       27.7361651660       14.6141982429
  C        36.4403761628       28.7238785097       15.3834668566
  C        46.1357629492       26.6208387979       15.2814950918
  C        46.0883476654       26.5803042472       12.4735974674
  C        22.4601522856        3.2556733809       10.2576653322
  C        23.1521270955        4.3644190484       10.9809806097
  C        24.1533926909        4.0792266266       11.9229171466
  C        24.7789218272        5.1100299874       12.6198004050
  C        24.4231616400        6.4553744616       12.3972468858
  C        23.4452992439        6.7337689793       11.4235179313
  C        22.8150866498        5.7033164865       10.7270821129
  C        25.0509623589        7.5542592193       13.1720445331
  C        25.0436375384        7.5477636295       14.5947780709
  C        24.3535456048        6.5485595602       15.3511898937
  C        26.6119065049       17.8561143682        5.7814582255
  C        25.3052137470       17.9041475309        5.0598672427
  C        25.0383124641       18.9095463389        4.1168306429
  C        23.8257410749       18.9275873626        3.4304697404
  C        22.8429715680       17.9445614979        3.6654543511
  C        23.1053285508       16.9621650134        4.6391129718
  C        24.3201514423       16.9379315371        5.3227077472
  C        21.5720553422       17.9298785169        2.8969392254
  C        21.5784197522       17.9186763864        1.4742242912
  C        22.7878237168       17.8011167070        0.7191100744
  C        34.4403724457       17.1885585720        5.9169667204
  C        35.7328519760       17.1416328779        5.1726029143
  C        35.9369949146       16.1702777394        4.1798420677
  C        37.1165523261       16.1553238134        3.4411842949
  C        38.1251649361       17.1103362231        3.6748728469
  C        37.9239088546       18.0624974855        4.6923484622
  C        36.7411389085       18.0830633308        5.4284177083
  C        39.3779315007       17.1155721420        2.8854261928
  C        39.3698921090       17.1174118500        1.4633263567
  C        38.1607965424       17.2318481938        0.7075266286
  C        20.3350526485       17.9407013304        0.7599925254
  C        20.3445884473       17.9254514838        3.5741331353
  C        34.4442461939       17.2349397912       10.1793588834
  C        35.7469771690       17.1361387729       10.8983077059
  C        35.9479994634       16.1589900204       11.8849277268
  C        37.1368230571       16.1274994471       12.6095173530
  C        38.1535388463       17.0725369546       12.3688511791
  C        37.9590611416       18.0214883100       11.3473069895
  C        36.7697674070       18.0577742271       10.6251318011
  C        39.4018712864       17.0876461269       13.1638652021
  C        39.3818900214       17.1030489072       14.5855700394
  C        38.1664310625       17.2231017833       15.3306617246
  C        35.1046073292       26.6618242380       15.3143402826
  C        35.1631593553       26.6726959847       12.5041838158
  C        26.6052593905       17.8021810155       10.3373123668
  C        25.2957538745       17.8644679996       11.0528250614
  C        25.0321985713       18.8789375404       11.9856670288
  C        23.8090373734       18.9182905694       12.6515441152
  C        22.8194696537       17.9441250026       12.4084782920
  C        23.0797077415       16.9530584375       11.4446061466
  C        24.3019216748       16.9116509899       10.7772084312
  C        21.5493458602       17.9342137763       13.1736395961
  C        21.5665103696       17.9202860097       14.5953848555
  C        22.7815048830       17.8016184236       15.3425977040
  C        14.0507423594       17.8316223415       10.2869578705
  C        15.3603447883       17.8960352205       11.0058389265
  C        15.6189927202       18.9031128042       11.9492124531
  C        16.8312310717       18.9306628000       12.6371657729
  C        17.8215923179       17.9542152261       12.4053082507
  C        17.5682857565       16.9723985923       11.4283611927
  C        16.3553399768       16.9402778098       10.7418932211
  C        19.0911746571       17.9402004697       13.1768948448
  C        19.0844557989       17.9318210906       14.6000032818
  C        17.8744723324       17.8288808018       15.3563526421
  C        46.8030085266       17.2160068955       10.1564637532
  C        45.5096424135       17.1458329275       10.8963353188
  C        45.3038186772       16.1609899533       11.8749628255
  C        44.1197469851       16.1334676955       12.6069762376
  C        43.1109427108       17.0906436415       12.3829270305
  C        43.3133256497       18.0542269132       11.3763424203
  C        44.4982878405       18.0856273970       10.6450109684
  C        41.8578129204       17.0948526000       13.1726425823
  C        41.8664058862       17.0981084882       14.5947626834
  C        43.0769303086       17.1975287508       15.3503760944
  C        20.3281235371       17.9408037534       15.3145408494
  C        20.3196667636       17.9242593514       12.5009169733
  C        46.7852413977       17.2325633749        5.8860062037
  C        45.4843028458       17.1287760795        5.1649373215
  C        45.2671394779       16.1294314521        4.2039862658
  C        44.0804205573       16.1015115743        3.4753153103
  C        43.0804921845       17.0702278813        3.6894412331
  C        43.2890070404       18.0408553095        4.6872813291
  C        44.4765996327       18.0747914076        5.4115623457
  C        41.8327629392       17.0881395550        2.8937564146
  C        41.8538667756       17.0934711962        1.4723569215
  C        43.0710625370       17.1923708609        0.7273771880
  C        46.1534620777       26.6372368561        0.7262628328
  C        46.1624968791       26.6560719711        3.5359080854
  C        14.0443218174       17.8293325072        5.7061942627
  C        15.3626104226       17.8986111256        5.0096418646
  C        15.6364843157       18.9147880815        4.0820052287
  C        16.8639819279       18.9502040235        3.4241547492
  C        17.8455226276       17.9684406115        3.6678913976
  C        17.5774185525       16.9791895663        4.6315899194
  C        16.3520581840       16.9434855803        5.2931728677
  C        19.1148303101       17.9471452680        2.9019156553
  C        19.0969550526       17.9341436955        1.4799925593
  C        17.8806389616       17.8297168395        0.7329126370
  C        28.8044422453       14.0855519862       10.3924271176
  C        28.1881232398       12.9151337734       11.0792589669
  C        28.9023872369       12.1867379730       12.0421272164
  C        28.3000857391       11.1145482209       12.6947603204
  C        26.9693790635       10.7473209437       12.4088998811
  C        26.2779389143       11.4554903127       11.4096546319
  C        26.8778803351       12.5280486833       10.7552397673
  C        26.2978240257        9.6697502833       13.1696294953
  C        26.2822958680        9.6979326037       14.5906305006
  C        26.7772425534       10.8145571958       15.3363862453
  C        32.1766332449       21.2363476778       10.1824083225
  C        32.7534528780       22.4109392725       10.8994503571
  C        31.9943459585       23.1150355465       11.8473305453
  C        32.5625851758       24.1615276062       12.5680684942
  C        33.9052228859       24.5333108930       12.3608762137
  C        34.6456563476       23.8515809817       11.3769355861
  C        34.0800502088       22.8009179737       10.6581428684
  C        34.5334637631       25.6095564254       13.1606727521
  C        34.5114959443       25.5820660248       14.5819855578
  C        33.9907718059       24.4698362219       15.3159760125
  C        25.6779895949        8.6170232174       15.3090998504
  C        25.6648008140        8.6170874035       12.4959587816
  C        32.0786862969       21.1982294787        5.8764783111
  C        32.6445029754       22.3667389295        5.1392489028
  C        31.9088052157       23.0128389455        4.1340761781
  C        32.4777944559       24.0568095309        3.4066004508
  C        33.7966021316       24.4822542782        3.6623003985
  C        34.5130839278       23.8491927013        4.6965181885
  C        33.9488963277       22.8031846227        5.4209770978
  C        34.4361955718       25.5677977125        2.8819510615
  C        34.4620555163       25.5606885906        1.4595259470
  C        33.9672897685       24.4592307264        0.6925906271
  C        40.6145939866       17.0879416476        0.7515404873
  C        40.6033181017       17.1170771740        3.5616705116
  C        28.7414478626       14.0607875237        5.8173169629
  C        28.1304363943       12.9149557363        5.0827776316
  C        28.8574603224       12.2382745312        4.0917414673
  C        28.2769150398       11.1821144736        3.3942691666
  C        26.9531894754       10.7783454475        3.6612751898
  C        26.2439341072       11.4432116595        4.6790246968
  C        26.8231426654       12.4992497261        5.3794105240
  C        26.3095904502        9.6901768629        2.8881906937
  C        26.2897968789        9.7083242826        1.4664653326
  C        26.7787641305       10.8210381831        0.7124089982
  C        18.1354732036        3.1810609284       10.3172102465
  C        17.4062464093        4.2782725836       11.0158916171
  C        16.3902979744        3.9999442018       11.9431672577
  C        15.7425723993        5.0399407305       12.6066263328
  C        16.0947265260        6.3836330172       12.3671452566
  C        17.0844325653        6.6531354224       11.4037189139
  C        17.7335339544        5.6157738552       10.7387018760
  C        15.4702794969        7.4913018209       13.1301395415
  C        15.4855121579        7.4906150117       14.5518479399
  C        16.1872100693        6.4970941726       15.3050076391
  C        42.9459022155       31.8595808046       10.0728684995
  C        43.6464228967       30.7718934411       10.8167321011
  C        44.5916747826       31.0933065890       11.8030392921
  C        45.1975095504       30.0878200625       12.5506924076
  C        44.8714832689       28.7346927479       12.3356219134
  C        43.9460305143       28.4202598607       11.3220815465
  C        43.3371136728       29.4253460404       10.5740404174
  C        45.4890693694       27.6554146363       13.1388455923
  C        45.4931486445       27.6810124378       14.5605501513
  C        44.8061283519       28.6890984504       15.3071859927
  C        14.8564060827        8.5630396490       15.2641850208
  C        14.8749422366        8.5630031143       12.4515130757
  C        42.9464635624       31.9616602847        5.8089698208
  C        43.6917437090       30.8854911512        5.0955261626
  C        44.6563314302       31.1914221459        4.1232266821
  C        45.2779177759       30.1718482118        3.4055211829
  C        44.9542009698       28.8215114948        3.6431368316
  C        44.0207588750       28.5238273289        4.6539566224
  C        43.3924523059       29.5405771302        5.3661305040
  C        45.5632313871       27.7241040669        2.8578702823
  C        45.5335616265       27.7174303147        1.4365654213
  C        44.8273633946       28.7077241789        0.6835811770
  C        35.0803586890       26.6500355807        0.7595260812
  C        35.0491379316       26.6232171947        3.5694329250
  C        18.1486421223        3.2471004490        5.7065284872
  C        17.4301509098        4.3439127562        4.9971803563
  C        16.4146600180        4.0527167829        4.0738917735
  C        15.7663883051        5.0833879837        3.3985360993
  C        16.1213808413        6.4285768429        3.6210265530
  C        17.1131548553        6.7118965471        4.5778815907
  C        17.7607981498        5.6829404727        5.2576164562
  C        15.4908020452        7.5242672244        2.8486239788
  C        15.4965885500        7.5075896392        1.4274945825
  C        16.1934536332        6.5059436167        0.6808197207
  H        10.6724853631       12.4659072453        3.9045622613
  H        11.6946831010       10.5511147217        2.6626908341
  H        15.3917100599       11.1685941983        4.7722970098
  H        14.3512603144       13.0712882280        6.0176012457
  H        13.3758731075       11.6310733831        1.2012370910
  H        50.3227952996       22.7483922612        3.9869183425
  H        49.3196426199       24.6228503738        2.6808836361
  H        45.6421343947       24.1610322247        4.8636709932
  H        46.6630581514       22.2900859010        6.1719268642
  H        47.6296594128       23.5757453161        1.2462171360
  H        14.8724818035        8.5884950205        4.6085387515
  H        50.2872433499       22.7023675362       12.0605494604
  H        49.2693382099       24.5752743465       13.3606053235
  H        45.6109472371       24.1095177119       11.1457933408
  H        46.6529797760       22.2541272544        9.8315628451
  H        47.6077550762       23.5517466659       14.7968750146
  H        40.6365560434       17.0680695204       11.4088766196
  H        48.6870848264       14.0949380959        7.7999930531
  H        10.6812748860       12.4667575112       12.0933208310
  H        11.6894352360       10.5248157851       13.2970362447
  H        15.3932686619       11.1584821949       11.2052294002
  H        14.3649017754       13.0869451250        9.9899585939
  H        13.3754125349       11.6219611929       14.7530653607
  H        47.9301844293       14.2183226380        9.7107817057
  H        47.7799692502       14.3735769253        6.4952624811
  H        49.0830045793       18.5518438948       10.8671115742
  H        10.4161409848       14.1343601978        7.9987322281
  H        24.4817747943        3.0256463303        3.9169055734
  H        25.6233115597        4.8848348859        2.6905409139
  H        23.2554517713        7.7525772528        4.8506232270
  H        22.1317323807        5.8839056085        6.0784786116
  H        23.8099750191        5.7883494445        1.2687965996
  H        36.3563130408       32.1942998748        3.9903927852
  H        35.2068880547       30.3754434943        2.7253978961
  H        37.4669301126       27.4398794171        4.9108249441
  H        38.5962810342       29.2720660172        6.1855874103
  H        36.9847132701       29.4581734572        1.3105469401
  H        25.7462174354        8.6025952243        4.6527808554
  H        36.4570056788       32.2496242412       12.1136694085
  H        35.3410029420       30.4418901374       13.4175925387
  H        37.5389669038       27.4904114193       11.1887327873
  H        38.6292656775       29.3102076616        9.8717002634
  H        37.0216245482       29.4796551189       14.8629600801
  H        46.1099175263       26.5877613078       11.3855647288
  H        44.6684780623       35.1163011586        7.8139250536
  H        24.4321167876        3.0413084994       12.0902751143
  H        25.5591658899        4.8824045549       13.3429518010
  H        23.1596092640        7.7680394690       11.2428374428
  H        22.0441688767        5.9151362878        9.9898140876
  H        23.7837005666        5.7915550100       14.8202473846
  H        44.9543852297       34.3908579386        9.6954786109
  H        44.9024586769       34.2069864404        6.4906973516
  H        40.6669503947       33.2096549873       10.8535146184
  H        23.1502731276        1.9581143417        8.0054819032
  H        25.7913518775       19.6731871289        3.9360269831
  H        23.6246665733       19.7123826941        2.7043758492
  H        22.3589919829       16.1934480491        4.8290401846
  H        24.5342544597       16.1643552135        6.0565059630
  H        23.7267236033       17.6782276403        1.2514317362
  H        35.1539624736       15.4386599004        3.9955157473
  H        37.2726742303       15.3941297449        2.6799011168
  H        38.6940728101       18.8086158161        4.8768943802
  H        36.5700320485       18.8331330303        6.1971257761
  H        37.2224895712       17.3586351198        1.2399237063
  H        20.3465752117       17.9574744723        4.6622764683
  H        35.1540657911       15.4425039359       12.0828139541
  H        37.2899130521       15.3665643753       13.3716672525
  H        38.7375144445       18.7567287419       11.1543060214
  H        36.6006340526       18.8089232120        9.8573854794
  H        37.2320913294       17.3425634877       14.7898246096
  H        35.1476171485       26.6963432574       11.4161696904
  H        28.5025643763       21.0941226769        7.8638542357
  H        25.7951891161       19.6326858161       12.1678167531
  H        23.6050318427       19.7098909729       13.3694163861
  H        22.3261606994       16.1922579640       11.2514291580
  H        24.5157105163       16.1353877727       10.0464756365
  H        23.7157842931       17.6787671992       14.8030425378
  H        28.9766850762       21.7262299616        9.7737325147
  H        29.1951680681       21.7099955069        6.5448598352
  H        32.1853069426       18.5176500843       10.9340208559
  H        27.3990666914       19.0757001598        8.0713936640
  H        14.8589073377       19.6601105210       12.1293422702
  H        17.0251091587       19.7178217099       13.3627073122
  H        18.3208318894       16.2097953319       11.2382150991
  H        16.1504760897       16.1677451031       10.0044278807
  H        16.9340003275       17.7162266733       14.8248959718
  H        46.0892385326       15.4309621741       12.0558642799
  H        43.9618958490       15.3626797904       13.3581804478
  H        42.5425689261       18.8012708071       11.1982983950
  H        44.6703732233       18.8443291044        9.8850919103
  H        44.0172942935       17.3099429481       14.8184140502
  H        20.3189330130       17.9552425560       11.4127310042
  H        46.0436684938       15.3879586046        4.0303030316
  H        43.9151197815       15.3246938169        2.7319178048
  H        42.5227722609       18.7938876356        4.8593641375
  H        44.6574316938       18.8427095083        6.1597013823
  H        44.0070755312       17.2998040734        1.2678810570
  H        46.1993674569       26.6826203812        4.6233527371
  H        52.7411105078       21.0625529452        8.1946881508
  H        14.8779055559       19.6714304455        3.8940297358
  H        17.0757819307       19.7423633361        2.7092205403
  H        18.3260513817       16.2141451787        4.8269960682
  H        16.1305467205       16.1677435257        6.0221391734
  H        16.9446841365       17.7177000592        1.2720301094
  H        52.3222216319       21.6730744041        6.2943081433
  H        52.0128703381       21.7016868536        9.4956481414
  H        49.0677074016       18.6077503529        5.2040242975
  H        13.2476337480       19.0163130423        7.9763745324
  H        29.9271046327       12.4756992266       12.2648569240
  H        28.8552674032       10.5484919385       13.4395434054
  H        25.2501587655       11.1809323694       11.1812073297
  H        26.3415833409       13.0963592383        9.9993075145
  H        27.1304669571       11.6878864810       14.7965974141
  H        30.9582729434       22.8281438026       12.0106525027
  H        31.9693962265       24.7061250893       13.2994469956
  H        35.6842208521       24.1300928266       11.2102850420
  H        34.6568111852       22.2498719788        9.9189008792
  H        33.6356497883       23.6022782621       14.7674314413
  H        25.6972349341        8.5964440231       11.4080528564
  H        30.8969006234       22.6732901286        3.9243031176
  H        31.8993026369       24.5579284576        2.6335793106
  H        35.5341598421       24.1644928450        4.9009990557
  H        34.5097868210       22.2928458358        6.2002870418
  H        33.5945225517       23.5833304635        1.2159954149
  H        40.5989457288       17.0867294177        4.6495794596
  H        32.5069189029       14.1450103379        8.2350531264
  H        29.8767170487       12.5562262964        3.8845635388
  H        28.8483018944       10.6529845681        2.6347536536
  H        25.2196249132       11.1440168116        4.8915305975
  H        26.2720578674       13.0290254209        6.1527252019
  H        27.1319165622       11.6994085879        1.2448577881
  H        33.3082589356       14.2244304786        6.4645548336
  H        33.4086180781       14.3928937220        9.5969399700
  H        32.1088129159       18.4487923556        5.1384417243
  H        30.1847767931       14.1451805020        8.0777966289
  H        16.1180758381        2.9634546110       12.1293923004
  H        14.9529479428        4.8206296872       13.3221133494
  H        17.3671852852        7.6859765106       11.2108925284
  H        18.5158686144        5.8184230320       10.0111714672
  H        16.7539484953        5.7398938123       14.7715007051
  H        44.8276868914       32.1404256002       11.9773929331
  H        45.9372046715       30.3417066935       13.3067607535
  H        43.6838071840       27.3781227755       11.1516528290
  H        42.6009174284       29.1899291757        9.8089939843
  H        44.2309432808       29.4369946214       14.7688840953
  H        14.8512988462        8.5462515244       11.3632903088
  H        44.8998792321       32.2341071574        3.9317892034
  H        46.0248562344       30.4131369430        2.6523331956
  H        43.7639111274       27.4840808168        4.8455852491
  H        42.6460468517       29.3177641959        6.1246617205
  H        44.2690042005       29.4707322190        1.2181471731
  H        35.0023883926       26.6347674397        4.6567491142
  H        36.6054256205       35.1341991393        8.1804917025
  H        16.1433404431        3.0131714179        3.9043734620
  H        14.9738561531        4.8566502889        2.6886497209
  H        17.3970864333        7.7473064651        4.7544285401
  H        18.5440642922        5.8933630944        5.9819679635
  H        16.7650806985        5.7558608735        1.2192743911
  H        36.2790889436       34.4823066958        6.2732050721
  H        36.3815522440       34.2087578868        9.4990958128
  H        40.5794812461       33.2020325520        5.1540050941
  H        17.4708949248        1.9475074331        7.9741298741
  H        29.1933853118       19.1305327944       12.9642507840
  H        28.8191076851       18.7516161671        3.7285873296
  H        31.7470853768       15.7479493160        3.5615508624
  H        31.4311931786       15.4935763093       12.4765272129
  H        28.0927894755       17.8406517586       14.3889972224
  H        29.5161091508       15.2262144813       14.4430360747
  H        32.5719457277       17.2309051740        1.3698096403
  H        18.8539526200        0.8691658808       12.3351331188
  H        40.5282932694       35.2288211701        3.9520232846
  H        42.3241286216       34.4190962995        3.5900574538
  H        22.0876324571        0.6921824229       12.3515889951
  H        11.5971237308       18.7126812944       12.3825367781
  H        52.2646478857       18.4315621966        3.6772166282
  H        49.2558031122       16.4765174028        3.5842974068
  H        10.1501140172       15.7982241234       12.2929223398
  H        50.8500047094       17.6922174341        3.9542404231
  H        10.0460441429       17.3944650709       12.0519838888
  H        20.2154277197        0.0023610040       12.0418537126
  H        39.1840177685       36.1246394530        3.6864886340
 Ni        30.6888100273       17.6692719086        2.7489109292
 Ni        30.9043559902       16.2775785467        0.0814447167
 Ni        29.6392541862       18.2731965604        0.2498540215
 Ni        30.1413919794       17.2067951560       13.1658463943
  O        10.6499607154       14.3651199278        5.4858896108
  O        12.6132003067       14.6575964883        6.5839546372
  O        49.1478549688       16.8459141819        7.9897817281
  O        50.3502659764       20.9358345476        5.6481439432
  O        48.3485470590       20.5932713013        6.6659749559
  O        11.0518303223       17.0536807921        6.5008087024
  O        50.3212171338       20.8816171873       10.4068031744
  O        48.3468059599       20.5867288728        9.3271555879
  O        49.5437601209       18.2483952525       10.0682231694
  O        12.3591959166       18.6245428290        7.9998467175
  O        48.6932317264       14.1486340453        6.7512819369
  O         8.2099204661       14.2104033008        9.3225197038
  O        10.7354339254       14.5068133382       10.6643233431
  O        12.5718918012       14.5829076052        9.3285118692
  O        22.8442100736        2.0421072689        5.4875402938
  O        21.6052535111        3.5917749781        6.5898490260
  O        42.0582093932       34.1374068322        7.9789831013
  O        37.9812776564       33.1376990261        5.5728209713
  O        39.2175700712       31.5756174764        6.6662941026
  O        20.3084314758        1.0394474729        6.5021221712
  O        38.0244040900       33.1852756180       10.4156217123
  O        39.2182391120       31.5828624942        9.3278825085
  O        40.6522225254       33.7692734714       10.0601721606
  O        18.2554530231        1.3761691098        7.9967938889
  O        44.6222524682       35.1005147219        6.7587796903
  O        24.2054294364        0.0000097941        9.3207626213
  O        22.7528230073        2.0575395969       10.5836525984
  O        21.6241127923        3.5955936958        9.3420894864
  O        27.4912002264       18.7494294681        5.4910475082
  O        26.7599863430       16.9356457852        6.6533690812
  O        30.6575146959       19.4042267171        8.0293142877
  O        33.5880331133       16.2725442221        5.6684862180
  O        34.2743010357       18.1651113408        6.7350754617
  O        29.5714815056       17.0483646430        6.5875706017
  O        33.5621692328       16.3382945951       10.4079377243
  O        34.2955483229       18.2459442717        9.4059398185
  O        31.6434596807       18.3128643860       10.1558324706
  O        30.2934738740       15.1095985686        8.0854568967
  O        28.5516741643       21.0330875120        6.8255142477
  O        28.5146731618       20.9540821433        9.4069188076
  O        27.5221558504       18.6238960416       10.6742415584
  O        26.6955754405       16.9252180357        9.4072867165
  O        13.1505469967       18.6927888053       10.5877487212
  O        13.9208667902       16.9165367305        9.4059625575
  O        50.5960584088       19.3501200757        8.0208224718
  O        47.6833301491       16.3268949383       10.4171155521
  O        46.9508215036       18.1756145393        9.3252474979
  O        11.0699120649       17.0154728297        9.4896596644
  O        47.6757166547       16.3358945945        5.6527725612
  O        46.9259716722       18.2358033281        6.6636489670
  O        49.5685884614       18.3176635927        5.9823976387
  O        10.3188016128       15.1002164088        7.9970871106
  O        52.6707781282       21.0278506268        9.2418394233
  O        12.1468151537       20.8910868725        6.6732350431
  O        13.1079799967       18.6136016961        5.3254926655
  O        13.9573967542       16.9870530694        6.6650972861
  O        29.9882895084       14.4348343648       10.7281000396
  O        28.0852876107       14.6530791806        9.4969845591
  O        32.0764173710       16.8622351658        8.0719693245
  O        30.9817168999       20.8805375465       10.5051486054
  O        32.9129091249       20.6541404045        9.3251018630
  O        29.5642757829       17.0757621481        9.5736831777
  O        30.8530399657       20.8831324837        5.6543540835
  O        32.8710050776       20.5835923378        6.6650400304
  O        31.6800511525       18.2508121408        5.9894511806
  O        28.2848624919       18.6774066641        8.0588864530
  O        32.4913282734       14.2103179041        9.3232070515
  O        32.4061904527       14.2134290686        6.8264321761
  O        29.9129880357       14.4302229712        5.4929104148
  O        28.0330285163       14.5886521883        6.7503758407
  O        17.8891949994        1.9666155784       10.6628003366
  O        18.9561648390        3.5271443095        9.4079748396
  O        39.1685497855       34.1386577119        7.9971737913
  O        43.2801980911       33.0589257287       10.3317315747
  O        42.0344133426       31.5064283614        9.2416552302
  O        20.3176462515        1.0367154061        9.4801169007
  O        43.2760897135       33.1825531874        5.5748682660
  O        42.0052199664       31.5841019435        6.5829859328
  O        40.5789510977       33.7749365965        5.9359505623
  O        22.3673608755        1.3845749070        7.9979643911
  O        36.6727894215       35.0997219677        9.2332608287
  O        16.4456411659        0.0643392771        6.6683476578
  O        17.9364872694        2.0433994928        5.3263672610
  O        18.9189578932        3.5931503214        6.6659274130
  O        29.7284417861       18.6923518168        4.0744448901
  O        29.8210219037       19.1253915421       12.1620839867
  O        31.2618250695       16.3551904377        4.1502867378
  O        31.3521251534       16.3394722930       11.9943400627
  O        31.8627823233       16.6199565948        1.6473596590
  O        30.3755766791       15.6848186429       14.3972279202
  O        28.9744905347       18.2545081905       14.3950986039
  O        39.4568365426       35.2438807365        4.0019850709
  O        19.1417823868        0.0046252015       11.9904918923
  O        41.9693300381       35.1725552512        4.0870052566
  O        21.6912987148       -0.0693290643       11.8959801970
  O        51.3648033159       18.6143273433        4.0054721427
  O        10.7513648700       18.7471608099       11.9049097612
  O        50.0801834561       16.4128107063        4.0917306875
  O         9.5243748268       16.4831184096       11.9912169786
 Zr         9.2969125223       16.0526597287        6.1824364006
 Zr        49.8364484710       16.0066571492        9.7464736006
 Zr        22.0736573219        0.0303077399        6.1887161835
 Zr        42.4612759009       35.1540988432        9.8010130338
 Zr        29.5991157249       19.0543477537        6.2139760262
 Zr        29.5802756688       19.1749576292        9.7645826912
 Zr        11.0384639326       19.0516957866        9.8279112645
 Zr        11.0437791444       19.1546207184        6.2512943588
 Zr        31.3352788732       16.0724735973        9.8595686870
 Zr        31.3695947526       15.9936817539        6.2482754337
 Zr        18.6014951080       -0.0008257784        9.7633389695
 Zr        18.5070407026       -0.0069544391        6.2136714670
 Zr        12.3025858910       16.3235241257        7.9906675532
 Zr        48.6161067429       18.8328647403        8.0103527142
 Zr        20.3155386939        2.4741225961        7.9904236890
 Zr        40.6439061054       32.6877283859        7.9782144727
 Zr        28.3427888201       16.3134621748        8.0742479888
 Zr        32.6292498995       18.8165809169        8.0319320094
  H        29.5291696145       16.7942266400        0.7350465977
  H        30.5182283628       19.7894001521       12.3401160574
  H        30.3837529706       18.7392796109        1.5910367619
