     566
 i =      107, E =     -4712.2362446237
  C        11.8589301481       14.0534498390        5.7415461685
  C        12.4564363865       12.8906389938        5.0232275150
  C        11.7046612628       12.1714615376        4.0817982723
  C        12.2810726427       11.1092753334        3.3894788999
  C        13.6217674240       10.7397258722        3.6169792627
  C        14.3550691435       11.4436265794        4.5901056713
  C        13.7821564316       12.5086053339        5.2815949910
  C        14.2612209684        9.6489944757        2.8436014357
  C        14.2562945887        9.6567951157        1.4219046464
  C        13.7431531031       10.7589375251        0.6680135648
  C        49.1270442700       21.2331263562        5.8796578488
  C        48.5503375974       22.4011982870        5.1526477884
  C        49.3002293294       23.0682360256        4.1713627381
  C        48.7333220936       24.1074240436        3.4381890878
  C        47.4029407067       24.5094184298        3.6671175055
  C        46.6721928727       23.8609102035        4.6810248514
  C        47.2346207556       22.8159789855        5.4103514397
  C        46.7726064582       25.5870622392        2.8698440287
  C        46.7614222094       25.5573637098        1.4480809823
  C        47.2613640438       24.4422914685        0.7045594249
  C        14.8601405585        8.5704099265        0.7086368935
  C        14.8921354179        8.5971328219        3.5202581098
  C        49.1133895091       21.2034499931       10.1453790793
  C        48.5280666289       22.3649443446       10.8724654532
  C        49.2671149561       23.0252542579       11.8657768814
  C        48.6908283823       24.0598498847       12.5972343397
  C        47.3606169021       24.4570770274       12.3586286431
  C        46.6404671811       23.8126677790       11.3345910775
  C        47.2139787041       22.7767463001       10.6028007117
  C        46.7220827596       25.5319661527       13.1496946016
  C        46.7336199921       25.5281951872       14.5714071289
  C        47.2490777140       24.4289968698       15.3277980599
  C        40.6278186536       17.1086176608       15.3193771818
  C        40.6401109589       17.1497495332       12.5091269533
  C        11.8831311367       14.0865077605       10.2855570432
  C        12.4724585737       12.9108573903       10.9898506450
  C        11.7148680263       12.1774386315       11.9157534182
  C        12.2814786821       11.0949766659       12.5841115227
  C        13.6204014803       10.7214447898       12.3524786900
  C        14.3584966104       11.4372986828       11.3919847581
  C        13.7930547259       12.5184885330       10.7193331209
  C        14.2539125716        9.6245994120       13.1228431602
  C        14.2524380381        9.6444542971       14.5446816467
  C        13.7426032725       10.7534149967       15.2917607226
  C        22.5134034304        3.2451070250        5.7519230774
  C        23.2310152114        4.3482618518        5.0509528900
  C        24.2262603325        4.0635864301        4.1039323618
  C        24.8583902483        5.0994965633        3.4208314284
  C        24.5118454817        6.4437448614        3.6633615426
  C        23.5442379192        6.7197809659        4.6469737281
  C        22.9074605694        5.6856024228        5.3288462281
  C        25.1245116858        7.5471290124        2.8871718505
  C        25.1007994602        7.5396008182        1.4652022279
  C        24.3962479156        6.5428938013        0.7180388884
  C        38.2982380023       31.9280144912        5.8515097752
  C        37.5563384755       30.8399563518        5.1489710623
  C        36.5902755723       31.1488795004        4.1788003035
  C        35.9582625604       30.1326029405        3.4672672792
  C        36.2767173040       28.7805851602        3.7023078033
  C        37.2127256529       28.4790011967        4.7097572488
  C        37.8486520473       29.4943821024        5.4208426499
  C        35.6630962809       27.6939964458        2.9034385791
  C        35.7003420111       27.7093995604        1.4815584809
  C        36.4143178599       28.7087832450        0.7477880414
  C        25.7286054661        8.6075304091        0.7457016838
  C        25.7244315860        8.6206208572        3.5578860244
  C        38.3299903115       31.9605556384       10.1600773352
  C        37.6119283336       30.8874667923       10.9089782645
  C        36.6772256340       31.1976909036       11.9089885416
  C        36.0651440081       30.1813871719       12.6408072824
  C        36.3725596509       28.8274339338       12.3976327729
  C        37.2885394108       28.5270734809       11.3704981816
  C        37.9022466992       29.5400199576       10.6395252247
  C        35.7550805801       27.7302397408       13.1797381774
  C        35.7468082799       27.7281912211       14.6025741619
  C        36.4349450118       28.7190103670       15.3711035780
  C        46.1354995539       26.6207630105       15.2815670987
  C        46.0881729765       26.5803830390       12.4736734760
  C        22.4635971069        3.2564412268       10.2572728928
  C        23.1635799803        4.3634878647       10.9774915452
  C        24.1689557738        4.0740292120       11.9140522755
  C        24.8035714587        5.1016558758       12.6078246556
  C        24.4535340125        6.4491504273       12.3885183109
  C        23.4712218592        6.7318472284       11.4203581717
  C        22.8320603567        5.7044385587       10.7266922074
  C        25.0903689587        7.5445155032       13.1626172515
  C        25.0837662200        7.5377416029       14.5855165923
  C        24.3861740643        6.5431720857       15.3411535134
  C        26.6201844938       17.8603669642        5.7753408519
  C        25.3146897640       17.9111375105        5.0537283074
  C        25.0594804188       18.9008630971        4.0911862562
  C        23.8458896377       18.9210466128        3.4068776618
  C        22.8509376506       17.9552896908        3.6620701895
  C        23.1023975305       16.9892011281        4.6549095287
  C        24.3176305949       16.9629828216        5.3369514670
  C        21.5783453941       17.9390141054        2.8970258104
  C        21.5792366461       17.9160140457        1.4741392554
  C        22.7847624537       17.7901259935        0.7137617791
  C        34.4408525866       17.1915568689        5.9233313547
  C        35.7351621817       17.1422267323        5.1817816464
  C        35.9496362142       16.1595635576        4.2026094357
  C        37.1289375728       16.1469596144        3.4634952000
  C        38.1275686273       17.1148366506        3.6852449532
  C        37.9174681261       18.0776920719        4.6904413584
  C        36.7342328490       18.0963998645        5.4258525224
  C        39.3808649913       17.1207064793        2.8966450356
  C        39.3740803515       17.1268492126        1.4750381409
  C        38.1650693163       17.2430658398        0.7197209226
  C        20.3325106210       17.9342570789        0.7655249386
  C        20.3531783635       17.9411676596        3.5790747562
  C        34.4198822019       17.2239497027       10.2522491322
  C        35.7317275376       17.1499950468       10.9572102335
  C        35.9730280289       16.1536970755       11.9156564151
  C        37.1715384822       16.1350904405       12.6224683481
  C        38.1585557117       17.1126571149       12.3911736096
  C        37.9265001039       18.0813562327       11.3972452918
  C        36.7265521074       18.1034777319       10.6911264892
  C        39.4113116786       17.1321819394       13.1776104926
  C        39.3896314870       17.1344341930       14.5987436117
  C        38.1726053584       17.2458091000       15.3429015682
  C        35.1043160684       26.6534864431       15.3036330646
  C        35.1719809301       26.6568043591       12.4935498283
  C        26.5719067781       17.8275334338       10.3212741998
  C        25.2564425483       17.8755106404       11.0250257894
  C        24.9921708835       18.8831458744       11.9648757574
  C        23.7754676776       18.9087078744       12.6408068749
  C        22.7933752397       17.9273022270       12.3992443774
  C        23.0514792463       16.9452833089       11.4257178348
  C        24.2693223696       16.9169629840       10.7489200064
  C        21.5302694145       17.9087516469       13.1736613828
  C        21.5542420158       17.8997543762       14.5953968876
  C        22.7726329930       17.7829262547       15.3371394008
  C        14.0473754023       17.8292257401       10.2887112449
  C        15.3518426996       17.8871845411       11.0130394355
  C        15.6076252574       18.8893558525       11.9621185642
  C        16.8167959283       18.9107326054       12.6545551299
  C        17.8048543617       17.9328822192       12.4204309300
  C        17.5539193471       16.9553609456       11.4388574785
  C        16.3441843177       16.9292514155       10.7479814979
  C        19.0739282780       17.9162017833       13.1893844354
  C        19.0726382802       17.9136308399       14.6119300859
  C        17.8657188985       17.8140620366       15.3731944616
  C        46.8042430118       17.2185190507       10.1581375518
  C        45.5127511933       17.1557752308       10.9026651973
  C        45.3038576648       16.1737726850       11.8833032498
  C        44.1214899299       16.1545196077       12.6185064899
  C        43.1182001181       17.1178476556       12.3957309597
  C        43.3241072870       18.0794114290       11.3880577302
  C        44.5070094792       18.1020505172       10.6533553804
  C        41.8656219059       17.1285835869       13.1858143481
  C        41.8732747177       17.1217333332       14.6080282405
  C        43.0835428453       17.2112894491       15.3654912840
  C        20.3194022505       17.9251350281       15.3203467935
  C        20.2981762382       17.8967979296       12.5071776611
  C        46.7865034733       17.2313887688        5.8892699850
  C        45.4838516245       17.1256297076        5.1728072491
  C        45.2646641144       16.1236818535        4.2155373556
  C        44.0772117287       16.0961989292        3.4885267210
  C        43.0805882320       17.0678383152        3.7024705779
  C        43.2902311204       18.0401912930        4.6979262049
  C        44.4786893843       18.0737665159        5.4200776643
  C        41.8343389052       17.0889428170        2.9063808211
  C        41.8575997385       17.0995383944        1.4855134592
  C        43.0760877667       17.1982673019        0.7423230158
  C        46.1532863281       26.6371822150        0.7263359098
  C        46.1627147976       26.6562306147        3.5359721325
  C        14.0462744163       17.8317844689        5.7082741284
  C        15.3670269542       17.9063694650        5.0175674289
  C        15.6392996555       18.9204117706        4.0869651137
  C        16.8681936147       18.9582149927        3.4319330045
  C        17.8532204652       17.9811557438        3.6810888325
  C        17.5877247645       16.9962346249        4.6500081637
  C        16.3608302329       16.9578352054        5.3086541660
  C        19.1207291707       17.9571806973        2.9120580869
  C        19.0971976788       17.9331324278        1.4904011163
  C        17.8777124987       17.8225705335        0.7494531012
  C        28.8106583351       14.0853588273       10.3612547309
  C        28.2124814700       12.9081903677       11.0524829791
  C        28.9416850169       12.1778694711       12.0024262522
  C        28.3492998633       11.1032185055       12.6617690744
  C        27.0146916216       10.7348163460       12.3954146102
  C        26.3083624950       11.4459010486       11.4083468717
  C        26.8974235405       12.5207700099       10.7479798628
  C        26.3491838045        9.6544834354       13.1604019563
  C        26.3369732503        9.6799912484       14.5818228145
  C        26.8401059343       10.7926765397       15.3279812402
  C        32.1818032590       21.2301296411       10.1488977111
  C        32.7720583188       22.3970945303       10.8700232357
  C        32.0139985627       23.0936356898       11.8246625593
  C        32.5808838068       24.1353315419       12.5528486162
  C        33.9221679331       24.5127514847       12.3471597426
  C        34.6631096141       23.8368951853       11.3589421617
  C        34.0988428689       22.7888186273       10.6335449092
  C        34.5448166640       25.5916128194       13.1497955474
  C        34.5164553205       25.5697916065       14.5717981361
  C        33.9930421330       24.4602737529       15.3079791531
  C        25.7245878771        8.6029252560       15.3004762138
  C        25.7091903258        8.6050911448       12.4871683684
  C        32.0764371208       21.1974439126        5.8724767731
  C        32.6407783920       22.3652159520        5.1332484090
  C        31.9052061396       23.0117152286        4.1279268752
  C        32.4742029786       24.0553885847        3.3997933706
  C        33.7931532328       24.4812724653        3.6547026145
  C        34.5092994081       23.8483501797        4.6894409095
  C        33.9452664941       22.8025864829        5.4144685656
  C        34.4330065236       25.5663796849        2.8731640263
  C        34.4592185387       25.5570108167        1.4504808573
  C        33.9652054368       24.4542962021        0.6846817641
  C        40.6193242834       17.1006936691        0.7640076419
  C        40.6049980853       17.1189897515        3.5739810432
  C        28.7506148253       14.0684499777        5.8138066294
  C        28.1480196660       12.9181913601        5.0776531252
  C        28.8850221297       12.2282358656        4.1028361430
  C        28.3091232039       11.1690510587        3.4054225864
  C        26.9796056141       10.7731818763        3.6559709645
  C        26.2602680664       11.4506374970        4.6585442839
  C        26.8345405118       12.5098894807        5.3584391667
  C        26.3403945753        9.6820226366        2.8813954008
  C        26.3333706075        9.6945336236        1.4590577422
  C        26.8358188890       10.8009215717        0.7041508084
  C        18.1355094835        3.1810255765       10.3170992125
  C        17.4062441743        4.2782431886       11.0157040689
  C        16.3902712800        3.9998891067       11.9429620138
  C        15.7425441551        5.0398665909       12.6064475726
  C        16.0946892516        6.3835834613       12.3670318506
  C        17.0843824653        6.6531126852       11.4035870176
  C        17.7334829136        5.6157687475       10.7385252693
  C        15.4702845415        7.4912378730       13.1301056236
  C        15.4853463490        7.4904097317       14.5518274655
  C        16.1868361882        6.4967471367       15.3049954356
  C        42.9457775533       31.8596071519       10.0728096330
  C        43.6461993934       30.7718755282       10.8168074008
  C        44.5913963451       31.0932726230       11.8031591010
  C        45.1971545032       30.0877732431       12.5508653609
  C        44.8711161009       28.7346640285       12.3357561605
  C        43.9456739971       28.4202593608       11.3222091060
  C        43.3368107363       29.4253535200       10.5741314489
  C        45.4887216105       27.6553717423       13.1389517996
  C        45.4927306348       27.6808711059       14.5606579117
  C        44.8055684678       28.6888495594       15.3073108282
  C        14.8563586066        8.5628826770       15.2642053332
  C        14.8752028675        8.5631279018       12.4515261134
  C        42.9464205657       31.9617467673        5.8090129834
  C        43.6917419633       30.8855413321        5.0955556207
  C        44.6563118008       31.1914505677        4.1232460438
  C        45.2778801399       30.1718678143        3.4055249038
  C        44.9541749406       28.8215500502        3.6432011268
  C        44.0207399138       28.5238821946        4.6540185324
  C        43.3924342419       29.5406447909        5.3661797517
  C        45.5632027733       27.7241243901        2.8579466827
  C        45.5333053619       27.7173234419        1.4366481301
  C        44.8268790653       28.7074890247        0.6837064188
  C        35.0777692330       26.6454977312        0.7493458340
  C        35.0467234750       26.6223306616        3.5597759065
  C        18.1487793549        3.2470739501        5.7066182916
  C        17.4302632737        4.3438905459        4.9973361170
  C        16.4147613428        4.0526206156        4.0740691438
  C        15.7664547606        5.0832442121        3.3986878157
  C        16.1214076885        6.4284616401        3.6211014784
  C        17.1131647138        6.7118504368        4.5779647770
  C        17.7608515016        5.6829439398        5.2577447638
  C        15.4907883544        7.5241069419        2.8486582210
  C        15.4964133556        7.5073359519        1.4275196138
  C        16.1930854991        6.5055782305        0.6808115314
  H        10.6724507409       12.4653814217        3.9049483682
  H        11.6947765394       10.5505970605        2.6631017862
  H        15.3922647389       11.1694243853        4.7715073504
  H        14.3518459774       13.0721296571        6.0166275946
  H        13.3763615303       11.6311545159        1.2013225348
  H        50.3228275735       22.7479663375        3.9863799124
  H        49.3197673449       24.6224829972        2.6804376628
  H        45.6428951816       24.1621103361        4.8645792594
  H        46.6638245366       22.2910849966        6.1728429862
  H        47.6300747292       23.5759749534        1.2462211369
  H        14.8728270946        8.5885699181        4.6085726229
  H        50.2870161589       22.7020915931       12.0609622805
  H        49.2691683783       24.5750135802       13.3609761110
  H        45.6113070994       24.1104542381       11.1450675446
  H        46.6534084137       22.2550466930        9.8307446517
  H        47.6080202036       23.5519431918       14.7969089652
  H        40.6436223281       17.1239077048       11.4210746317
  H        48.6873751733       14.0950258946        7.8000619467
  H        10.6813229703       12.4663248369       12.0929950008
  H        11.6896786412       10.5243886682       13.2966413338
  H        15.3940814663       11.1597749601       11.2063523700
  H        14.3656265489       13.0881394278        9.9912033563
  H        13.3760066099       11.6221328116       14.7531366277
  H        47.9302222824       14.2189230826        9.7109181356
  H        47.7802352117       14.3746739382        6.4957699626
  H        49.0842762401       18.5525361270       10.8675889316
  H        10.4165860597       14.1343146446        7.9988505107
  H        24.4826741855        3.0237800195        3.9136474197
  H        25.6303299825        4.8769776816        2.6873277493
  H        23.2682277471        7.7541054153        4.8415346702
  H        22.1388409505        5.8911745138        6.0699476898
  H        23.8315344812        5.7881101919        1.2575043022
  H        36.3593104611       32.1934963924        3.9839591751
  H        35.2098702793       30.3776799770        2.7167842338
  H        37.4672101281       27.4383137263        4.8998393776
  H        38.5964684108       29.2675091348        6.1771430974
  H        36.9775744086       29.4576439990        1.2969605010
  H        25.7571335899        8.6042977609        4.6458049625
  H        36.4493659043       32.2421647646       12.1095828310
  H        35.3337088133       30.4297731761       13.4067053537
  H        37.5406370980       27.4867555803       11.1755902109
  H        38.6298235301       29.3110625961        9.8645950059
  H        37.0148483860       29.4753378482       14.8499285893
  H        46.1098549207       26.5879831598       11.3856445032
  H        44.6683399092       35.1162393434        7.8139850055
  H        24.4438994204        3.0348595025       12.0799367256
  H        25.5862818195        4.8693842942       13.3268578479
  H        23.1888325710        7.7673564188       11.2414438886
  H        22.0581618844        5.9210175369        9.9938563926
  H        23.8133193445        5.7890718224       14.8092897376
  H        44.9538234132       34.3904326627        9.6952339591
  H        44.9017715303       34.2068185481        6.4906980064
  H        40.6662794240       33.2094416801       10.8533142318
  H        23.1505681304        1.9582016598        8.0049137860
  H        25.8232202245       19.6489473077        3.8918834906
  H        23.6542543457       19.6939751676        2.6657139695
  H        22.3466882155       16.2339924452        4.8611377946
  H        24.5221992917       16.2020029324        6.0863768691
  H        23.7262358779       17.6675632094        1.2415874772
  H        35.1752345342       15.4160714316        4.0304143522
  H        37.2937044470       15.3780833860        2.7117358354
  H        38.6808116253       18.8330454266        4.8655852809
  H        36.5549560063       18.8548226954        6.1844449818
  H        37.2265313583       17.3632859251        1.2533717068
  H        20.3597774713       17.9823189319        4.6669092621
  H        35.2074194088       15.4038909878       12.0999587308
  H        37.3577598342       15.3595642924       13.3622067329
  H        38.6834690195       18.8408809784       11.2127871165
  H        36.5267343389       18.8667436985        9.9427220706
  H        37.2392329547       17.3675704719       14.8009801499
  H        35.1595136867       26.6778570955       11.4054286531
  H        28.5009034937       21.0723894213        7.8781791664
  H        25.7547203339       19.6369266578       12.1475730068
  H        23.5708034205       19.6930571129       13.3663141700
  H        22.3016560475       16.1805433125       11.2337335057
  H        24.4850103668       16.1456877704       10.0134202768
  H        23.7044519829       17.6549149491       14.7940722611
  H        29.0050446226       21.7223692107        9.7388529120
  H        29.1941055162       21.7137137847        6.5658465464
  H        32.0634650645       18.5791159369       10.9236846168
  H        27.3924012194       19.0523957438        8.0724137002
  H        14.8483584545       19.6471965411       12.1418552396
  H        17.0112166234       19.6941005163       13.3839766816
  H        18.3062518243       16.1926139463       11.2486346170
  H        16.1393331161       16.1609680564       10.0061973865
  H        16.9232750999       17.6974421814       14.8460495496
  H        46.0852944055       15.4390939634       12.0628111506
  H        43.9605570338       15.3851004042       13.3704430815
  H        42.5580442466       18.8316267600       11.2115228012
  H        44.6822981675       18.8588265947        9.8922778840
  H        44.0248536492       17.3234538528       14.8351010794
  H        20.2922440833       17.9262373118       11.4190307936
  H        46.0405414485       15.3813510102        4.0427433913
  H        43.9090858648       15.3187240686        2.7464603209
  H        42.5252311572       18.7947825231        4.8685275109
  H        44.6629893681       18.8428882293        6.1660805592
  H        44.0118169467       17.2994410258        1.2845233546
  H        46.1997987669       26.6829319029        4.6234056970
  H        52.7414364217       21.0627417122        8.1947429750
  H        14.8780406460       19.6730086717        3.8937328954
  H        17.0780208912       19.7477439463        2.7135181512
  H        18.3392427883       16.2353684312        4.8505903244
  H        16.1412653916       16.1841915538        6.0404105721
  H        16.9442804536       17.7125689484        1.2932138071
  H        52.3231328990       21.6735058924        6.2940242937
  H        52.0137217700       21.7024477103        9.4956817265
  H        49.0684769142       18.6079790923        5.2038466131
  H        13.2480375660       19.0158138060        7.9772787044
  H        29.9678465425       12.4714152133       12.2126198384
  H        28.9158088125       10.5367635509       13.3977150961
  H        25.2770406622       11.1725164509       11.1950928907
  H        26.3476614768       13.0917209932       10.0038209262
  H        27.2019628392       11.6629102234       14.7884083232
  H        30.9804881478       22.7993864825       11.9898103822
  H        31.9863282709       24.6720799772       13.2888998785
  H        35.7008397653       24.1185821217       11.1922895032
  H        34.6773711416       22.2445143134        9.8906330932
  H        33.6382974424       23.5912158281       14.7613073770
  H        25.7376463218        8.5868118199       11.3990931933
  H        30.8925643362       22.6744676994        3.9182796133
  H        31.8950962753       24.5557354872        2.6267071036
  H        35.5302024055       24.1639982570        4.8942585537
  H        34.5063222239       22.2934300817        6.1944267662
  H        33.5891107846       23.5803755974        1.2090086382
  H        40.6001373969       17.0871689963        4.6618306365
  H        32.5069310509       14.1571371851        8.2491501207
  H        29.9100579102       12.5357618601        3.9094632372
  H        28.8888854960       10.6305550769        2.6589210448
  H        25.2314307887       11.1589178290        4.8593079804
  H        26.2743269783       13.0483009781        6.1191611012
  H        27.1926601439       11.6780617609        1.2361547195
  H        33.3105762079       14.2365513656        6.4690785775
  H        33.4117610583       14.3735052027        9.6049065522
  H        32.1155372123       18.4586444216        5.1315594602
  H        30.2087517496       14.1912564367        8.0807112236
  H        16.1180414350        2.9633996750       12.1291812543
  H        14.9529182925        4.8205047528       13.3219167633
  H        17.3671566358        7.6859545272       11.2107798937
  H        18.5158129721        5.8184925379       10.0110074709
  H        16.7534727683        5.7394675465       14.7714951121
  H        44.8273899443       32.1403956117       11.9775137896
  H        45.9368074613       30.3416416642       13.3069809701
  H        43.6834064854       27.3781334578       11.1517976210
  H        42.6005701456       29.1899972643        9.8091081428
  H        44.2302470769       29.4366503345       14.7690167174
  H        14.8517613218        8.5465556988       11.3632966969
  H        44.8998191192       32.2341411358        3.9317825942
  H        46.0247858303       30.4131373845        2.6522979534
  H        43.7638992736       27.4841401068        4.8456663092
  H        42.6459805570       29.3178923136        6.1246842399
  H        44.2684451932       29.4704154173        1.2183161354
  H        35.0003353048       26.6344239727        4.6471273587
  H        36.6053972702       35.1341036231        8.1806647563
  H        16.1434577618        3.0130671384        3.9045864461
  H        14.9739251119        4.8564338783        2.6888233835
  H        17.3970724323        7.7472750517        4.7544798905
  H        18.5441001094        5.8934551752        5.9820923164
  H        16.7646188633        5.7554022125        1.2192343729
  H        36.2790411013       34.4822181692        6.2732143266
  H        36.3814136234       34.2088296717        9.4993806048
  H        40.5792637592       33.2022164687        5.1537799475
  H        17.4713970959        1.9474261355        7.9741711928
  H        30.0842014440       19.6840607711       12.4780964027
  H        29.0913906855       19.1053221742        3.4538255374
  H        31.8001705701       15.6810748444        3.5098480406
  H        32.2305344844       16.3434275464       12.4512084565
  H        28.8577122144       19.0716793257       14.3250911380
  H        32.3172235808       17.1231202438        0.9914486874
  H        18.8539464247        0.8690694563       12.3352259822
  H        40.5283668714       35.2291880028        3.9520048808
  H        42.3242939366       34.4191875309        3.5903028425
  H        22.0875740334        0.6923552484       12.3513961421
  H        11.5971000659       18.7126411425       12.3825759321
  H        52.2656113430       18.4313472254        3.6775627097
  H        49.2554245822       16.4768342375        3.5843124717
  H        10.1505729850       15.7981999514       12.2924967369
  H        50.8507572083       17.6926049404        3.9540766588
  H        10.0463991840       17.3946156119       12.0519060870
  H        20.2154920822        0.0023666364       12.0418558452
  H        39.1841062076       36.1249274386        3.6866177637
 Ni        30.6033370903       17.5262753009        2.5856268706
 Ni        30.4383192919       16.4423675211       -0.2530912624
 Ni        29.7141982115       18.4325500458        0.4992908396
 Ni        30.4377536366       17.5790094930       13.4110407657
  O        10.6499840455       14.3650819380        5.4858784117
  O        12.6131957023       14.6575166927        6.5839107593
  O        49.1479247469       16.8458220811        7.9897627459
  O        50.3503382516       20.9356899466        5.6479825694
  O        48.3485922174       20.5932951188        6.6659096819
  O        11.0520237564       17.0537053465        6.5008096196
  O        50.3210548924       20.8816420513       10.4068915129
  O        48.3467561659       20.5867699282        9.3271754042
  O        49.5437377611       18.2483494782       10.0682597430
  O        12.3592680648       18.6246616002        7.9996991294
  O        48.6932707594       14.1485389949        6.7513353990
  O         8.2098923714       14.2104849988        9.3225943512
  O        10.7353655303       14.5067897798       10.6643126702
  O        12.5718181823       14.5828247845        9.3285079141
  O        22.8446925854        2.0430782779        5.4870354261
  O        21.6066952025        3.5929784429        6.5885194253
  O        42.0580801126       34.1374012328        7.9789249047
  O        37.9812369300       33.1366277758        5.5723747634
  O        39.2170923084       31.5749061524        6.6655913874
  O        20.3084789732        1.0397430352        6.5022595135
  O        38.0241129886       33.1845417983       10.4158362574
  O        39.2182274852       31.5827162356        9.3275788780
  O        40.6521746059       33.7692520446       10.0600912035
  O        18.2559269297        1.3760288690        7.9967865486
  O        44.6222081501       35.1005497968        6.7587977823
  O        24.2053923343       -0.0000014579        9.3207524001
  O        22.7532579059        2.0577051353       10.5838465772
  O        21.6251743571        3.5967593198        9.3439473282
  O        27.5013668952       18.7518071544        5.4898936146
  O        26.7635250009       16.9369115813        6.6483432074
  O        30.6300018446       19.3506845993        8.0094511854
  O        33.5883394728       16.2730548923        5.6698758524
  O        34.2716049941       18.1662663294        6.7381560751
  O        29.5743799414       17.0513648281        6.5717305751
  O        33.5347875093       16.3415852580       10.5688706362
  O        34.2658572275       18.1675438875        9.4116251709
  O        31.6506025119       18.3174194725       10.0849370608
  O        30.3191941962       15.1562921706        8.0809317322
  O        28.5522846335       21.0292192403        6.8298953986
  O        28.5157659849       20.9522179225        9.4040159838
  O        27.4594512660       18.6777748898       10.6544368005
  O        26.6947194971       16.9275062566        9.4100483135
  O        13.1487461128       18.6928980792       10.5873368725
  O        13.9194375308       16.9163042258        9.4050817764
  O        50.5966221762       19.3502483056        8.0205488580
  O        47.6822562612       16.3271468205       10.4174608351
  O        46.9512482378       18.1760111589        9.3248114573
  O        11.0699612418       17.0154396956        9.4895208086
  O        47.6763771799       16.3355263183        5.6532635527
  O        46.9272318184       18.2359230421        6.6645776110
  O        49.5689703157       18.3177025690        5.9823717976
  O        10.3187623019       15.1001198913        7.9971440762
  O        52.6708007496       21.0278806391        9.2418189471
  O        12.1468674138       20.8912273735        6.6732999437
  O        13.1082279473       18.6135899084        5.3256116823
  O        13.9574402490       16.9872032130        6.6651951091
  O        30.0004822491       14.4400365399       10.6659063874
  O        28.0774130386       14.6572427989        9.4847322372
  O        32.0758354390       16.8469465831        8.0765440487
  O        30.9626429084       20.9368623193       10.4160145422
  O        32.9431981609       20.5975243419        9.3360109067
  O        29.5604850256       17.0717107962        9.5829999753
  O        30.8497956536       20.8798124323        5.6512634454
  O        32.8673754270       20.5850814723        6.6642040898
  O        31.6793712605       18.2455078789        5.9740086491
  O        28.2850299657       18.6695226933        8.0640786807
  O        32.4917094924       14.2174310173        9.3276351380
  O        32.4047543555       14.2177297277        6.8213793560
  O        29.9243683472       14.4446091667        5.4854310661
  O        28.0420091494       14.5876820872        6.7478748340
  O        17.8892819327        1.9665885100       10.6627593163
  O        18.9563346364        3.5271025494        9.4079123595
  O        39.1684955101       34.1385859506        7.9971719994
  O        43.2801613419       33.0589075555       10.3317153113
  O        42.0343642654       31.5064422074        9.2415985072
  O        20.3177060765        1.0368518438        9.4798690498
  O        43.2760808646       33.1826059235        5.5748876397
  O        42.0052125188       31.5841046198        6.5829817755
  O        40.5788809195       33.7749450838        5.9358629776
  O        22.3674669591        1.3849043974        7.9979400996
  O        36.6728612574       35.0996888224        9.2333414462
  O        16.4457193651        0.0642413823        6.6682746889
  O        17.9365443175        2.0433912623        5.3264381185
  O        18.9192334862        3.5931199327        6.6659794381
  O        29.8303144521       18.6806271185        3.9249069458
  O        29.8229280207       18.8442384257       12.0573365664
  O        31.3892015203       16.4108735256        4.0055086048
  O        31.3021571335       16.4157302872       12.1656472502
  O        31.5619722440       16.5498766154        1.2252198887
  O        29.7466994419       18.8373380368       14.6533721505
  O        39.4570656811       35.2441654529        4.0019929691
  O        19.1419123603        0.0046360080       11.9904305584
  O        41.9695974516       35.1727722625        4.0871323864
  O        21.6913393739       -0.0693007189       11.8959342826
  O        51.3656097837       18.6143441069        4.0054133463
  O        10.7513043431       18.7470607086       11.9049798442
  O        50.0797513787       16.4127650645        4.0917025176
  O         9.5245887045       16.4830779670       11.9911880729
 Zr         9.2982970456       16.0526385290        6.1825062383
 Zr        49.8373998407       16.0067286103        9.7463193963
 Zr        22.0734526109        0.0306712026        6.1887848722
 Zr        42.4610400880       35.1541827173        9.8009942701
 Zr        29.5970109470       19.0542188567        6.2169659229
 Zr        29.5597401741       19.1675692658        9.8484673132
 Zr        11.0391886157       19.0517600845        9.8279882888
 Zr        11.0451271709       19.1546468071        6.2507845057
 Zr        31.3225798045       16.0963537399        9.8909219046
 Zr        31.3795816434       16.0085388948        6.2460548220
 Zr        18.6014515075       -0.0010222931        9.7634254441
 Zr        18.5068795631       -0.0072150329        6.2136486208
 Zr        12.3037054774       16.3235646202        7.9903645916
 Zr        48.6180361323       18.8333205826        8.0103752435
 Zr        20.3162564701        2.4747465355        7.9905566315
 Zr        40.6433683117       32.6874706360        7.9780413330
 Zr        28.3351749812       16.3328261043        8.0785001870
 Zr        32.6032868742       18.8195490813        8.0361576328
  H        29.2107957678       17.7261295634        1.7478772544
  H        29.0064729968       19.5888337194        1.0702030536
