     569
 i =      142, E =     -4729.4674102945
  C        11.8583847753       14.0536245133        5.7415625749
  C        12.4559294792       12.8904020492        5.0233717675
  C        11.7045670668       12.1722005559        4.0809333605
  C        12.2808996854       11.1099477906        3.3885693473
  C        13.6211336599       10.7393969586        3.6170429560
  C        14.3538639056       11.4421250599        4.5914598699
  C        13.7810052207       12.5071234608        5.2829765833
  C        14.2608349439        9.6488669247        2.8436016703
  C        14.2564636251        9.6569203248        1.4218854066
  C        13.7433357734       10.7590437875        0.6679411752
  C        49.1263328337       21.2334635008        5.8798566864
  C        48.5495074994       22.4012428608        5.1526354578
  C        49.2997367961       23.0689152201        4.1720252180
  C        48.7327551430       24.1079321549        3.4387195035
  C        47.4020133198       24.5091356906        3.6669301450
  C        46.6707632343       23.8597454679        4.6798787510
  C        47.2332343263       22.8148936915        5.4093077544
  C        46.7719339961       25.5869295429        2.8696595030
  C        46.7612036704       25.5574342716        1.4478969923
  C        47.2609944893       24.4422484856        0.7044395072
  C        14.8605341502        8.5706364568        0.7086284875
  C        14.8914959845        8.5968099278        3.5202227506
  C        49.1129000534       21.2034515634       10.1452002091
  C        48.5275396987       22.3646853802       10.8725315127
  C        49.2669075485       23.0256551303       11.8651722869
  C        48.6905630014       24.0601862143       12.5966355202
  C        47.3600477115       24.4567445632       12.3586037358
  C        46.6394375737       23.8114634138       11.3354704812
  C        47.2129707177       22.7755206663       10.6037120890
  C        46.7217118939       25.5318029544       13.1495962380
  C        46.7335449087       25.5282535041       14.5712943391
  C        47.2487814491       24.4289423092       15.3276763703
  C        40.6205920777       17.0746229993       15.3097072502
  C        40.6321589933       17.1175460580       12.4982687686
  C        11.8826035501       14.0865496287       10.2853446722
  C        12.4718666377       12.9103768701       10.9894189259
  C        11.7146224154       12.1778537502       11.9162491283
  C        12.2810844373       11.0953452176       12.5847399229
  C        13.6195797386       10.7208847719       12.3522747404
  C        14.3571944643       11.4356143830       11.3905593727
  C        13.7918502257       12.5168209976       10.7178389648
  C        14.2533015140        9.6242424516       13.1227502915
  C        14.2524692342        9.6444511059       14.5446031641
  C        13.7427137692       10.7534554517       15.2916833190
  C        22.5114210671        3.2448682689        5.7528196312
  C        23.2246508302        4.3520199983        5.0528123190
  C        24.2247719378        4.0750423433        4.1090718045
  C        24.8505498680        5.1163884056        3.4280573006
  C        24.4916417484        6.4573843527        3.6700628651
  C        23.5190965119        6.7259256756        4.6505532465
  C        22.8892124823        5.6864545609        5.3302016208
  C        25.0952604068        7.5665623698        2.8956763214
  C        25.0735880930        7.5587755892        1.4737037079
  C        24.3808422317        6.5548574995        0.7249588637
  C        38.2974850958       31.9274010213        5.8514736570
  C        37.5564255879       30.8387454011        5.1510906793
  C        36.5950199105       31.1438141222        4.1745847461
  C        35.9670094626       30.1249919137        3.4634692986
  C        36.2831835094       28.7728715418        3.7045032982
  C        37.2128185518       28.4758257987        4.7198152934
  C        37.8453795163       29.4935469164        5.4300956476
  C        35.6761928029       27.6841318750        2.9047598010
  C        35.7097893492       27.7038404883        1.4806146325
  C        36.4205697039       28.7043780511        0.7486202155
  C        25.6926857183        8.6322387412        0.7555610631
  C        25.6844478359        8.6449969173        3.5681595166
  C        38.3293677996       31.9611199666       10.1591327952
  C        37.6104706788       30.8902001105       10.9052441518
  C        36.6851089526       31.2008354599       11.9142376817
  C        36.0753713062       30.1846553389       12.6470265715
  C        36.3739282109       28.8298951255       12.3951257511
  C        37.2782118697       28.5298099087       11.3568483702
  C        37.8909873163       29.5424184877       10.6259572838
  C        35.7608833209       27.7324014020       13.1766628305
  C        35.7531428583       27.7284691134       14.6009958634
  C        36.4400644631       28.7170324360       15.3705044911
  C        46.1356871431       26.6210014442       15.2813794850
  C        46.0877103649       26.5801014721       12.4734995995
  C        22.4639312124        3.2573922817       10.2588379597
  C        23.1635642944        4.3666489914       10.9803359946
  C        24.1691432414        4.0806572746       11.9178430354
  C        24.8014489646        5.1101153110       12.6123557803
  C        24.4494535439        6.4573027451       12.3932592780
  C        23.4671494100        6.7365446731       11.4238066949
  C        22.8305142236        5.7073490533       10.7296850126
  C        25.0802891960        7.5565388532       13.1694608303
  C        25.0665637030        7.5529249546       14.5930250886
  C        24.3751580868        6.5533391067       15.3478687311
  C        26.6190009309       17.8560914646        5.7398116241
  C        25.3199357535       17.9134027307        5.0167297017
  C        25.0568667953       18.9080714127        4.0612899911
  C        23.8371798371       18.9312275855        3.3887548123
  C        22.8449904075       17.9639942349        3.6495239788
  C        23.1036706719       16.9942746330        4.6370605450
  C        24.3237827857       16.9651137398        5.3073273248
  C        21.5706227977       17.9464650616        2.8908360231
  C        21.5724677469       17.9189258378        1.4686884089
  C        22.7779100111       17.7844298139        0.7102585185
  C        34.4456374242       17.1892409249        5.9229619680
  C        35.7360299739       17.1409871026        5.1828145637
  C        35.9387337856       16.1712162283        4.1870276835
  C        37.1170173134       16.1563616919        3.4479989866
  C        38.1287274951       17.1087321969        3.6828201352
  C        37.9296862395       18.0572106554        4.7052598047
  C        36.7477404527       18.0787781224        5.4417885950
  C        39.3789090278       17.1141546523        2.8920340457
  C        39.3691289665       17.1052227778        1.4678767256
  C        38.1612372542       17.2128369000        0.7127235465
  C        20.3261626075       17.9371382120        0.7607532126
  C        20.3467871146       17.9482840185        3.5746904752
  C        34.4501345185       17.2356819034       10.1859332751
  C        35.7448308431       17.1296743495       10.9008738286
  C        35.9547250070       16.1449114111       11.8815558163
  C        37.1407501402       16.1187747272       12.6084451013
  C        38.1560995700       17.0684881614       12.3715473204
  C        37.9569468833       18.0183872713       11.3496252815
  C        36.7671412350       18.0565088863       10.6317143108
  C        39.4014404761       17.0871564100       13.1653475966
  C        39.3808195931       17.0898293675       14.5892940713
  C        38.1670019907       17.2032442457       15.3342024974
  C        35.1135594475       26.6505485122       15.3000644208
  C        35.1800016354       26.6588505824       12.4894933013
  C        26.5651821445       17.8277315843       10.3232813095
  C        25.2526364291       17.8732718895       11.0266092383
  C        24.9961268472       18.8683676653       11.9823583057
  C        23.7783547604       18.8940232953       12.6553008498
  C        22.7887338719       17.9239113397       12.3980543746
  C        23.0406173740       16.9536530314       11.4110006126
  C        24.2586332005       16.9259722123       10.7352304407
  C        21.5255184310       17.9051431572       13.1703968429
  C        21.5489478538       17.8952357964       14.5919241505
  C        22.7661833559       17.7725429973       15.3339661630
  C        14.0450881843       17.8294317156       10.2872854302
  C        15.3501182498       17.8879470527       11.0111982940
  C        15.6075435262       18.8941872056       11.9550387646
  C        16.8167855706       18.9161558746       12.6471393266
  C        17.8015270488       17.9346162704       12.4164296671
  C        17.5490234224       16.9525250648       11.4402501501
  C        16.3392107496       16.9261312489       10.7499072687
  C        19.0698714462       17.9172496365       13.1852292953
  C        19.0676600715       17.9155194695       14.6076731335
  C        17.8602652197       17.8197499328       15.3685105161
  C        46.8019831694       17.2161825938       10.1569811376
  C        45.5094530912       17.1468634830       10.8959417845
  C        45.3059986724       16.1689857247       11.8825447054
  C        44.1223820753       16.1441389402       12.6147660094
  C        43.1094752312       17.0961126330       12.3835157575
  C        43.3096592418       18.0516984080       11.3681846670
  C        44.4944788021       18.0811122050       10.6370142865
  C        41.8573786304       17.1018389433       13.1730331499
  C        41.8660726928       17.0954177075       14.5976161304
  C        43.0743262329       17.1977275464       15.3524727216
  C        20.3139581016       17.9250847678       15.3161094326
  C        20.2938549307       17.8957585072       12.5033365427
  C        46.7847393383       17.2316389334        5.8867150294
  C        45.4847679617       17.1261640148        5.1689174897
  C        45.2722754459       16.1349634004        4.1978258328
  C        44.0860878929       16.1084881054        3.4694835655
  C        43.0796062261       17.0689332854        3.6942054520
  C        43.2830757596       18.0291086378        4.7040443768
  C        44.4708899467       18.0630234041        5.4268863225
  C        41.8336387887       17.0885122953        2.8992633800
  C        41.8540532902       17.0878749832        1.4758722377
  C        43.0688316894       17.1910626243        0.7310914060
  C        46.1533988834       26.6374173616        0.7261291448
  C        46.1619190209       26.6560140502        3.5357665602
  C        14.0438845882       17.8316803827        5.7086231297
  C        15.3644218766       17.9069425923        5.0161015220
  C        15.6357272762       18.9245815066        4.0894464362
  C        16.8636276732       18.9642211876        3.4326427426
  C        17.8476205568       17.9854279193        3.6773826493
  C        17.5829092352       16.9959513721        4.6416433801
  C        16.3569160675       16.9559262989        5.3018447230
  C        19.1145216760       17.9632963095        2.9077984788
  C        19.0910528498       17.9385199840        1.4859325837
  C        17.8715727555       17.8297662045        0.7450094249
  C        28.7902527730       14.1240184691       10.4028923666
  C        28.1908834190       12.9494127701       11.0954883606
  C        28.9107084158       12.2259075469       12.0585608258
  C        28.3180685297       11.1439925665       12.7057956560
  C        26.9920662664       10.7608712552       12.4157323232
  C        26.2959913751       11.4660105104       11.4170573796
  C        26.8851567416       12.5473828167       10.7681590455
  C        26.3252725799        9.6757599625       13.1723642252
  C        26.3008679259        9.7062221174       14.5935453784
  C        26.7857582615       10.8263250314       15.3408030237
  C        32.1794009979       21.2439911292       10.1406979301
  C        32.7716462080       22.4126555963       10.8510993810
  C        32.0253977671       23.0840083390       11.8334702731
  C        32.5945497767       24.1219550401       12.5637754204
  C        33.9270655437       24.5199037984       12.3364387440
  C        34.6540687129       23.8690916816       11.3204558263
  C        34.0878458605       22.8253128882       10.5909498650
  C        34.5535366600       25.5918277250       13.1425738815
  C        34.5289826920       25.5657834586       14.5663888827
  C        34.0169445056       24.4516182078       15.3002380057
  C        25.6942638591        8.6250749653       15.3101620948
  C        25.6975090672        8.6202251750       12.4962844783
  C        32.0955934436       21.1688604790        5.8343650523
  C        32.6536509415       22.3347914971        5.1008302624
  C        31.9230486154       22.9896436675        4.0951137387
  C        32.4942232042       24.0373543549        3.3771024679
  C        33.8108428337       24.4677839382        3.6440553736
  C        34.5184130168       23.8324687158        4.6844266869
  C        33.9542833117       22.7795114887        5.3966145903
  C        34.4522318896       25.5532076133        2.8694173788
  C        34.4751281412       25.5473128523        1.4449703817
  C        33.9903463041       24.4433523921        0.6782061088
  C        40.6140965949       17.0766995364        0.7554357832
  C        40.6044376700       17.1244920267        3.5668838110
  C        28.7193526873       14.0962613936        5.8158464339
  C        28.1037872387       12.9493726326        5.0875497082
  C        28.8325753622       12.2677937141        4.0998575951
  C        28.2539711722       11.2095197426        3.4044928059
  C        26.9293132704       10.8050728717        3.6677933871
  C        26.2183081173       11.4742288206        4.6823874262
  C        26.7952990931       12.5334476771        5.3812353339
  C        26.2916174566        9.7125311413        2.8933945128
  C        26.2848983010        9.7252032659        1.4707872127
  C        26.7761813106       10.8369179371        0.7168523777
  C        18.1354037813        3.1806799278       10.3171166291
  C        17.4059038925        4.2780165550       11.0156386112
  C        16.3907131254        3.9995351753       11.9436726040
  C        15.7429075666        5.0394530214       12.6072151211
  C        16.0942025238        6.3832415009       12.3670573978
  C        17.0829495629        6.6528416060       11.4026599184
  C        17.7321445631        5.6155684447       10.7375853812
  C        15.4699279765        7.4909577083       13.1301154590
  C        15.4856223115        7.4905290166       14.5518288680
  C        16.1874036329        6.4970742681       15.3050062989
  C        42.9457872235       31.8594560591       10.0728104467
  C        43.6462189013       30.7718676075       10.8167094321
  C        44.5919857290       31.0931783990       11.8025648616
  C        45.1976955769       30.0876383331       12.5502106942
  C        44.8710549932       28.7345917704       12.3355346607
  C        43.9449414050       28.4202541552       11.3225908557
  C        43.3360974685       29.4253978260       10.5745815511
  C        45.4886681452       27.6553360678       13.1387433858
  C        45.4930112057       27.6811246568       14.5604303827
  C        44.8059331517       28.6892060273       15.3070225520
  C        14.8566784703        8.5630530671       15.2641787602
  C        14.8742895471        8.5625274637       12.4515222056
  C        42.9463541570       31.9614537722        5.8090317342
  C        43.6914806840       30.8854228917        5.0954217824
  C        44.6562590121       31.1913655754        4.1233037391
  C        45.2777618367       30.1717943518        3.4055624609
  C        44.9537599355       28.8214736656        3.6429324921
  C        44.0199963033       28.5237879184        4.6534440761
  C        43.3917149465       29.5405267845        5.3656369130
  C        45.5628725736       27.7241334979        2.8576798132
  C        45.5334127849       27.7175855160        1.4363825632
  C        44.8271559505       28.7078536646        0.6834159368
  C        35.0887742900       26.6399253949        0.7461423077
  C        35.0683917012       26.6065414185        3.5585469577
  C        18.1487259954        3.2467941318        5.7068530428
  C        17.4300654187        4.3437904463        4.9975466554
  C        16.4152295422        4.0524809633        4.0736060245
  C        15.7669002657        5.0830599346        3.3981192510
  C        16.1211615792        6.4283405759        3.6211433599
  C        17.1120952653        6.7117752322        4.5788512986
  C        17.7597687962        5.6828875600        5.2586819309
  C        15.4906831855        7.5240483067        2.8486783168
  C        15.4968088025        7.5075660278        1.4275348818
  C        16.1937004655        6.5059621517        0.6808215543
  H        10.6726944815       12.4669476160        3.9033598277
  H        11.6947601229       10.5520232505        2.6614783003
  H        15.3905478264       11.1667324392        4.7739645628
  H        14.3500080593       13.0696768353        6.0192803138
  H        13.3761584427       11.6311047298        1.2012419912
  H        50.3225757663       22.7491169471        3.9876366161
  H        49.3192677461       24.6234605636        2.6813463835
  H        45.6410041885       24.1599491098        4.8624864953
  H        46.6619066696       22.2890410319        6.1707534859
  H        47.6290767047       23.5756869853        1.2461519532
  H        14.8714295132        8.5878194841        4.6085219192
  H        50.2870023481       22.7028904626       12.0599254988
  H        49.2689241026       24.5757606595       13.3600784051
  H        45.6098387000       24.1082801613       11.1467885411
  H        46.6518900677       22.2529018285        9.8326379188
  H        47.6071646788       23.5516483912       14.7967932577
  H        40.6365234712       17.0919915254       11.4101498343
  H        48.6866652640       14.0949265886        7.7998091180
  H        10.6814008063       12.4675372853       12.0941760719
  H        11.6893802604       10.5254912916       13.2979465207
  H        15.3922907240       11.1569544409       11.2039209634
  H        14.3638162604       13.0855591849        9.9885202389
  H        13.3756704702       11.6219671727       14.7530272305
  H        47.9297278307       14.2192783039        9.7103606996
  H        47.7800927985       14.3747223906        6.4947998681
  H        49.0811090876       18.5513290618       10.8666079584
  H        10.4152424343       14.1344288462        7.9985568268
  H        24.4898104241        3.0372220531        3.9194776830
  H        25.6267265012        4.9005604390        2.6970163229
  H        23.2336661804        7.7579239906        4.8437698454
  H        22.1164574802        5.8847997065        6.0688956158
  H        23.8219079484        5.7950247294        1.2633998131
  H        36.3649287286       32.1876265668        3.9743496675
  H        35.2231809950       30.3678293532        2.7077797445
  H        37.4666945630       27.4359825847        4.9152961575
  H        38.5891199333       29.2688105517        6.1910241447
  H        36.9842847776       29.4528207973        1.2977186026
  H        25.7170453323        8.6266203934        4.6560432936
  H        36.4638685441       32.2455263487       12.1208646270
  H        35.3519513946       30.4329452544       13.4204593855
  H        37.5232841949       27.4890983332       11.1553293107
  H        38.6109945146       29.3135137901        9.8440219235
  H        37.0197192993       29.4747537105       14.8511927118
  H        46.1088466856       26.5872808218       11.3854552989
  H        44.6679339820       35.1158987363        7.8139511007
  H        24.4462912708        3.0421779959       12.0849224613
  H        25.5838897699        4.8783808408       13.3319208518
  H        23.1817348612        7.7711000169       11.2440940767
  H        22.0566661827        5.9227143783        9.9963823005
  H        23.8114983417        5.7929192595       14.8151387288
  H        44.9526962604       34.3895867143        9.6947728805
  H        44.9004095317       34.2063627005        6.4905554402
  H        40.6648353387       33.2080251794       10.8525411838
  H        23.1509069434        1.9573742972        8.0053723328
  H        25.8123238975       19.6643363553        3.8618847370
  H        23.6372777060       19.7072959156        2.6531372995
  H        22.3491942641       16.2387035278        4.8462746325
  H        24.5348447733       16.2020000185        6.0526230090
  H        23.7185189015       17.6572415615        1.2383410402
  H        35.1560491078       15.4401564280        3.9999557240
  H        37.2708740103       15.3971319494        2.6844088592
  H        38.7015581260       18.8010668656        4.8916984423
  H        36.5803641573       18.8273819685        6.2127169795
  H        37.2216691677       17.3381942034        1.2430832453
  H        20.3533591981       17.9904010433        4.6624803349
  H        35.1750940309       15.4100896680       12.0691269242
  H        37.2975486956       15.3549677436       13.3669130517
  H        38.7329268444       18.7565574412       11.1579119261
  H        36.5953187855       18.8132555745        9.8702142736
  H        37.2313678118       17.3208726962       14.7953508473
  H        35.1649683022       26.6837096616       11.4014771429
  H        28.5100050406       21.0858551533        8.0007582338
  H        25.7639308142       19.6125039546       12.1812583196
  H        23.5788034458       19.6697675087       13.3913175101
  H        22.2851145033       16.1976180815       11.2071885998
  H        24.4687057824       16.1640703253        9.9884592303
  H        23.6974203748       17.6369092583       14.7921020905
  H        29.0131813560       21.7179708604        9.7549381206
  H        29.1031409525       21.7771159528        6.6125678100
  H        32.1032453871       18.6389055102       10.9545653155
  H        27.4042792817       19.0832194756        8.0791299334
  H        14.8492682822       19.6539190878       12.1309789083
  H        17.0135617210       19.7022472492       13.3729950574
  H        18.2994392561       16.1868171158       11.2544936507
  H        16.1311207590       16.1549866522       10.0120078712
  H        16.9178129632       17.7054495320       14.8408301343
  H        46.0931293622       15.4421983781       12.0690005472
  H        43.9671342592       15.3787975185       13.3720087800
  H        42.5371723828       18.7955337287       11.1842813342
  H        44.6640836582       18.8346026956        9.8713750791
  H        44.0144843632       17.3160982646       14.8215782165
  H        20.2874804295       17.9261031593       11.4152322158
  H        46.0525103722       15.3992562620        4.0165263792
  H        43.9248769570       15.3386959401        2.7179890014
  H        42.5128318545       18.7760378789        4.8845490874
  H        44.6478937029       18.8244776000        6.1824977283
  H        44.0048877831       17.3033123163        1.2703452920
  H        46.1983981935       26.6823272750        4.6232306181
  H        52.7405854328       21.0623420178        8.1945081780
  H        14.8741903679       19.6780460030        3.9006612729
  H        17.0731364362       19.7564077461        2.7170448060
  H        18.3338277673       16.2332127528        4.8372500459
  H        16.1367426580       16.1794826926        6.0304930037
  H        16.9377305898       17.7230397037        1.2887692866
  H        52.3206725403       21.6727439666        6.2950089696
  H        52.0119685541       21.7011347577        9.4954388250
  H        49.0653173100       18.6073460363        5.2048211404
  H        13.2465939088       19.0170902346        7.9769658074
  H        29.9329840731       12.5224591672       12.2838200616
  H        28.8785206634       10.5819400838       13.4497107619
  H        25.2716474746       11.1818358213       11.1850184380
  H        26.3427966814       13.1114200822       10.0134716114
  H        27.1393533508       11.7005322832       14.8027454743
  H        31.0034742195       22.7646043228       12.0222248070
  H        32.0097585036       24.6390648431       13.3212664029
  H        35.6849295407       24.1652479647       11.1371697206
  H        34.6590579514       22.2986975118        9.8298769448
  H        33.6709143399       23.5793108523       14.7533113356
  H        25.7340526298        8.5993455415       11.4084523650
  H        30.9075253687       22.6638891151        3.8827577073
  H        31.9196637445       24.5419404260        2.6034631289
  H        35.5359833793       24.1511903349        4.9006995896
  H        34.5121504876       22.2695130915        6.1781449536
  H        33.6248457280       23.5634864642        1.1996935258
  H        40.6010494109       17.1005735911        4.6550012009
  H        32.5126701117       14.1394543820        8.2277738912
  H        29.8520530350       12.5843717306        3.8921347233
  H        28.8284083269       10.6789871149        2.6482967762
  H        25.1935877942       11.1759263290        4.8942965675
  H        26.2399423779       13.0640451609        6.1510352442
  H        27.1212165304       11.7192265679        1.2481365520
  H        33.3073252379       14.2171793524        6.4616175363
  H        33.4039301554       14.3763550436        9.6076103853
  H        32.1263793696       18.4557050208        5.1622011638
  H        30.1832372570       14.1495364767        8.0830219209
  H        16.1191579086        2.9629587539       12.1304350109
  H        14.9538485520        4.8199333953       13.3232654110
  H        17.3647246688        7.6857974706       11.2090305457
  H        18.5136485402        5.8182029921       10.0091613953
  H        16.7539059785        5.7396956653       14.7715035362
  H        44.8283690153       32.1402525286       11.9766320920
  H        45.9376524200       30.3413207375       13.3060847792
  H        43.6819411321       27.3782177598       11.1527456622
  H        42.5991481697       29.1900601268        9.8102341134
  H        44.2304173717       29.4368465411       14.7687091807
  H        14.8500456547        8.5454525260       11.3633164070
  H        44.8999179534       32.2340454338        3.9320219738
  H        46.0247345963       30.4129789147        2.6523808207
  H        43.7626900194       27.4840793527        4.8446753781
  H        42.6448861200       29.3176889573        6.1237492442
  H        44.2684659342       29.4706267583        1.2179732560
  H        35.0245596079       26.6152145329        4.6461251857
  H        36.6050692347       35.1337899528        8.1807766358
  H        16.1444734692        3.0128496288        3.9036547220
  H        14.9748456778        4.8561098017        2.6877644402
  H        17.3951376189        7.7473043073        4.7561056927
  H        18.5422282961        5.8933030213        5.9839087237
  H        16.7651381665        5.7557274424        1.2192668355
  H        36.2797725741       34.4811732275        6.2735897482
  H        36.3822558750       34.2084824813        9.4998414054
  H        40.5779960924       33.2009918693        5.1545058337
  H        17.4712945200        1.9465762242        7.9741335423
  H        29.0949950930       19.5251500338       12.5676912253
  H        28.5852535503       18.6692649348        3.9451870408
  H        31.9404910015       15.8238692162        3.6001857379
  H        31.0342191324       15.7305046518       12.8746956346
  H        27.8874907519       17.9128868325       14.5975303779
  H        29.4633172607       15.1711414377       14.2266436135
  H        32.3820302058       17.3056228347        1.2050845902
  H        18.8534617958        0.8692204362       12.3349882613
  H        40.5279369524       35.2292285136        3.9522820804
  H        42.3227811809       34.4175812006        3.5917937017
  H        22.0880385285        0.6921278231       12.3512028101
  H        11.5971077633       18.7127701285       12.3818767601
  H        52.2644699225       18.4304386057        3.6777731109
  H        49.2545448423       16.4783938452        3.5856367814
  H        10.1503581050       15.7982459212       12.2926160903
  H        50.8492272572       17.6921818682        3.9545402700
  H        10.0457490634       17.3945185739       12.0520372956
  H        20.2142482856        0.0020803316       12.0421515524
  H        39.1835709716       36.1244585763        3.6865756378
 Ni        30.5242484568       17.4237068428        2.6608824460
 Ni        30.9440324292       16.2056053722       -0.1653498466
 Ni        29.5891274062       18.0169663283        0.2498458559
 Ni        29.8457371477       17.4759484260       13.2450397018
  O        10.6498546071       14.3650916438        5.4857279514
  O        12.6131615574       14.6575046996        6.5838454401
  O        49.1478363466       16.8460380464        7.9898511810
  O        50.3500467040       20.9364122158        5.6483188582
  O        48.3484527832       20.5934279790        6.6660133484
  O        11.0509461562       17.0542112413        6.5004984569
  O        50.3209129288       20.8817531743       10.4067819136
  O        48.3466789774       20.5867681229        9.3270808258
  O        49.5433939385       18.2485145640       10.0683322349
  O        12.3585987610       18.6244688609        7.9996976072
  O        48.6930808772       14.1485561557        6.7511868197
  O         8.2097499735       14.2103060138        9.3225907448
  O        10.7352755733       14.5066800323       10.6643856312
  O        12.5717710664       14.5828259730        9.3284854925
  O        22.8449065753        2.0441384464        5.4869122046
  O        21.6056730979        3.5926217153        6.5900407830
  O        42.0577696372       34.1370443771        7.9790195395
  O        37.9815223204       33.1370041465        5.5722934247
  O        39.2172344703       31.5753183899        6.6657095104
  O        20.3084071604        1.0396912026        6.5021681728
  O        38.0248742338       33.1861851480       10.4151300958
  O        39.2187293171       31.5834827644        9.3269353059
  O        40.6522258050       33.7691448605       10.0601800631
  O        18.2560852278        1.3755575155        7.9968631319
  O        44.6221877497       35.1005489436        6.7587106045
  O        24.2053260097        0.0000584715        9.3208505079
  O        22.7536988844        2.0588311402       10.5848699369
  O        21.6258202512        3.5978534129        9.3456655174
  O        27.5508616335       18.6921313262        5.4072315942
  O        26.7304698852       16.9955213304        6.6662611081
  O        30.6686446114       19.4111576541        8.0824504247
  O        33.5913050621       16.2726864629        5.6758440391
  O        34.2713460059       18.1681428609        6.7393453797
  O        29.5719127055       17.0656791593        6.5777425102
  O        33.5506829133       16.3415420655       10.4203269018
  O        34.3001257040       18.2368511228        9.4054459257
  O        31.6462477350       18.3092087114       10.1637552875
  O        30.2917261495       15.1143431211        8.0835349911
  O        28.5542718435       21.0307021146        6.9104402188
  O        28.5156348315       20.9566430984        9.4089013932
  O        27.4525982682       18.6792454878       10.6567919990
  O        26.6941561692       16.9283668009        9.4118394945
  O        13.1480503151       18.6932866245       10.5872021178
  O        13.9190046312       16.9160800951        9.4046040092
  O        50.5953007325       19.3501739087        8.0204350796
  O        47.6831869437       16.3269540004       10.4170720459
  O        46.9510237983       18.1756280983        9.3251089430
  O        11.0691807920       17.0157005178        9.4898159614
  O        47.6767715377       16.3355269503        5.6531415722
  O        46.9269112254       18.2355988999        6.6641979185
  O        49.5681341483       18.3178200610        5.9821858299
  O        10.3185326948       15.1003340258        7.9970470262
  O        52.6706766549       21.0279520131        9.2418200926
  O        12.1467644452       20.8911961419        6.6731656767
  O        13.1074455663       18.6140173932        5.3255628704
  O        13.9568989290       16.9870478890        6.6650117112
  O        29.9623633799       14.5127898027       10.7437102609
  O        28.0784924508       14.6584830443        9.4868369154
  O        32.0756412670       16.8593700982        8.0722927123
  O        30.9656199123       20.9509275923       10.4084918915
  O        32.9467239575       20.5960290330        9.3359811438
  O        29.5669382695       17.0770957187        9.5764867602
  O        30.8782147159       20.8093162128        5.5750831309
  O        32.8663182348       20.5864169959        6.6650097852
  O        31.6733536235       18.2540204406        5.9983936372
  O        28.2880706615       18.6799751255        8.0816135379
  O        32.4883313647       14.2093049522        9.3190632271
  O        32.4060458405       14.2146425416        6.8265055680
  O        29.9046130206       14.4389695105        5.4959552446
  O        28.0057148516       14.6503950428        6.7354244764
  O        17.8891998875        1.9665718294       10.6628296933
  O        18.9563283550        3.5271228481        9.4079993827
  O        39.1686601792       34.1386275883        7.9970788199
  O        43.2802296033       33.0590058579       10.3316335626
  O        42.0345589849       31.5064769299        9.2415267954
  O        20.3176814611        1.0365483758        9.4804389320
  O        43.2760756638       33.1825778182        5.5749594110
  O        42.0052517810       31.5840786320        6.5830273694
  O        40.5789607445       33.7747691720        5.9358559256
  O        22.3673140372        1.3848415562        7.9981492403
  O        36.6727002203       35.0996532765        9.2333699283
  O        16.4455270569        0.0640848642        6.6682187062
  O        17.9365073026        2.0434248821        5.3264057040
  O        18.9192414569        3.5930833092        6.6661043114
  O        29.5701958488       18.8228678337        3.9137144275
  O        29.7384685860       18.9957150526       12.0591070733
  O        31.3877971151       16.4062512623        4.1535456381
  O        31.4810652880       16.2566440609       12.0849696011
  O        31.7988825665       16.5535641429        1.4313670656
  O        30.2443139086       15.7492566296       14.1535283342
  O        28.7342595124       18.3955264678       14.5793053011
  O        39.4568419627       35.2438364775        4.0019645827
  O        19.1412387392        0.0045785511       11.9906467654
  O        41.9697762688       35.1728356032        4.0873492715
  O        21.6914383156       -0.0693277943       11.8958278120
  O        51.3647202609       18.6142288627        4.0054835743
  O        10.7510530177       18.7473511232       11.9049052707
  O        50.0797666901       16.4129114061        4.0915863842
  O         9.5244414793       16.4830746193       11.9912628066
 Zr         9.2944887959       16.0529771782        6.1821368634
 Zr        49.8344478423       16.0069893098        9.7467251320
 Zr        22.0726090957        0.0289089650        6.1894644230
 Zr        42.4604093225       35.1526128332        9.8008276411
 Zr        29.6433799147       19.1037773920        6.3945445568
 Zr        29.5595766714       19.1680893338        9.9416426422
 Zr        11.0360271947       19.0521942507        9.8272602172
 Zr        11.0418264550       19.1549812553        6.2516401160
 Zr        31.3394064413       16.0785654970        9.8087391499
 Zr        31.3787533192       15.9952737858        6.2345083691
 Zr        18.6005064440       -0.0030004511        9.7635481648
 Zr        18.5062423912       -0.0088758019        6.2135368729
 Zr        12.2994425389       16.3235877435        7.9900605042
 Zr        48.6133354035       18.8323349863        8.0101427089
 Zr        20.3152770861        2.4725473821        7.9914755714
 Zr        40.6418943059       32.6853564179        7.9781645035
 Zr        28.3295840522       16.3413518314        8.0831246930
 Zr        32.6489132175       18.8338212773        8.0533178481
  H        29.2515633940       17.5399735918        1.6658952770
  H        29.7294566929       19.5774461533        3.3109306464
  H        32.3629182321       16.5354093903       12.3939744869
