     566
 i =      245, E =     -4712.2443588587
  C        11.8584282583       14.0535473909        5.7415563377
  C        12.4558876236       12.8904595047        5.0231751301
  C        11.7041580262       12.1715556637        4.0815524849
  C        12.2804509621       11.1092651489        3.3892230471
  C        13.6209821054       10.7393487059        3.6169792120
  C        14.3542307683       11.4429664797        4.5903452540
  C        13.7813952899       12.5079982280        5.2818409639
  C        14.2604380777        9.6485750310        2.8436208454
  C        14.2557533841        9.6564015331        1.4219069762
  C        13.7427097280       10.7585751023        0.6679919327
  C        49.1264450699       21.2332864302        5.8797560266
  C        48.5494570262       22.4011645373        5.1526409765
  C        49.2996841322       23.0688820563        4.1720734271
  C        48.7327370957       24.1079561167        3.4387947263
  C        47.4020079109       24.5091200145        3.6670448039
  C        46.6707744928       23.8597860796        4.6800382794
  C        47.2332470101       22.8148888481        5.4094104342
  C        46.7717669770       25.5868013412        2.8697340034
  C        46.7607741455       25.5572378963        1.4479687471
  C        47.2607410484       24.4421343632        0.7045260240
  C        14.8595774476        8.5699719865        0.7086667305
  C        14.8911330918        8.5965844330        3.5202863076
  C        49.1128867303       21.2032852684       10.1451796084
  C        48.5273366507       22.3646182818       10.8724373872
  C        49.2665592622       23.0254248303       11.8652710435
  C        48.6901771110       24.0599116952       12.5968037294
  C        47.3597214391       24.4565266577       12.3586337761
  C        46.6392635210       23.8114759539       11.3352408082
  C        47.2128801786       22.7756199066       10.6034168750
  C        46.7212707769       25.5315205919       13.1496417770
  C        46.7329493986       25.5279429756       14.5713572371
  C        47.2484348712       24.4287697504       15.3277614177
  C        40.6117656130       17.0773736423       15.3580656674
  C        40.6533361243       17.1886744701       12.5481940604
  C        11.8825753252       14.0865755984       10.2856037814
  C        12.4718498285       12.9105943104       10.9898757366
  C        11.7142221452       12.1772323003       11.9157509585
  C        12.2807318633       11.0946688438       12.5841121858
  C        13.6195934105       10.7209991660       12.3524605479
  C        14.3576719889       11.4366995103       11.3918486841
  C        13.7923167796       12.5179744003       10.7192254742
  C        14.2531352894        9.6241140539       13.1228156164
  C        14.2519157369        9.6440321170       14.5446698853
  C        13.7421263837       10.7530190934       15.2917372036
  C        22.5199062185        3.2470522726        5.7569314190
  C        23.2515571222        4.3517063377        5.0691807378
  C        24.2600902529        4.0680083291        4.1358035859
  C        24.9031698646        5.1043016107        3.4624859713
  C        24.5553012455        6.4489930016        3.7008919049
  C        23.5763296566        6.7243754570        4.6732914681
  C        22.9286597670        5.6896550623        5.3453699287
  C        25.1672090876        7.5525080665        2.9210632897
  C        25.1187665366        7.5472901714        1.4993558301
  C        24.4061313632        6.5488247458        0.7616218232
  C        38.2972579928       31.9244216726        5.8532027356
  C        37.5566752416       30.8298062407        5.1579794826
  C        36.5841325750       31.1258502590        4.1902096374
  C        35.9580901518       30.1006302908        3.4853629300
  C        36.2887069449       28.7515849088        3.7234087270
  C        37.2291613642       28.4630133102        4.7305835154
  C        37.8587626147       29.4870397916        5.4351202398
  C        35.6878367092       27.6571378232        2.9238090838
  C        35.7268383608       27.6763717885        1.5015102495
  C        36.4344569403       28.6831721593        0.7715956865
  C        25.7295088141        8.6189606250        0.7714238757
  C        25.7814911386        8.6240005220        3.5832635685
  C        38.3318857524       31.9587677450       10.1639714048
  C        37.6212752484       30.8840344250       10.9193928163
  C        36.6900260987       31.1908120785       11.9240178394
  C        36.0849720993       30.1728265488       12.6602657762
  C        36.3948882913       28.8190673495       12.4177446806
  C        37.3085996247       28.5222952124       11.3871100281
  C        37.9153794560       29.5367229319       10.6519059453
  C        35.7807985426       27.7176528166       13.1988861080
  C        35.7732517738       27.7081359543       14.6222703561
  C        36.4558932367       28.6991071598       15.3948923311
  C        46.1349703354       26.6206309107       15.2814519872
  C        46.0873124206       26.5798604931       12.4735689171
  C        22.4580933737        3.2567792953       10.2626977829
  C        23.1442914965        4.3655721334       10.9953616173
  C        24.1436151488        4.0798677931       11.9395561568
  C        24.7664584231        5.1092332605       12.6420759975
  C        24.4108729163        6.4556064430       12.4239191170
  C        23.4317363663        6.7344022089       11.4511065982
  C        22.8046220663        5.7053364630       10.7487858096
  C        25.0450288964        7.5548890805       13.1956460697
  C        25.0554921480        7.5485145254       14.6191449164
  C        24.3747668021        6.5499794179       15.3849497766
  C        26.5590881100       17.8142853706        5.7966976237
  C        25.2611391113       17.8708832167        5.0694546832
  C        25.0181069118       18.8668256218        4.1103496268
  C        23.8109947921       18.8927616721        3.4169211696
  C        22.8145409487       17.9265472950        3.6609104818
  C        23.0533953649       16.9543919217        4.6505041988
  C        24.2619557375       16.9225530280        5.3421573447
  C        21.5490746855       17.9186331954        2.8893689255
  C        21.5574052100       17.9076420732        1.4673424086
  C        22.7661973014       17.7814004711        0.7126698133
  C        34.3449233507       17.1377519017        5.9064166336
  C        35.6338933769       17.0428744599        5.1668973509
  C        35.8230475008       16.0980694850        4.1444356720
  C        37.0163563306       16.0678231618        3.4244780702
  C        38.0580869976       16.9777365735        3.7021670041
  C        37.8699766280       17.8963548316        4.7548710047
  C        36.6773753677       17.9342036527        5.4714129529
  C        39.3220342166       16.9916422367        2.9264929274
  C        39.3324172979       17.0341174551        1.5024201162
  C        38.1343461775       17.1710938899        0.7352782989
  C        20.3141211575       17.9364500025        0.7543700627
  C        20.3228512949       17.9184817216        3.5671858463
  C        34.4380926039       17.2280346228       10.2458328543
  C        35.7514202649       17.1554289860       10.9452156733
  C        35.9967067758       16.1542843390       11.8996782675
  C        37.1886058344       16.1415076001       12.6166978080
  C        38.1721078321       17.1278091153       12.4019929881
  C        37.9388594407       18.0986785759       11.4086559030
  C        36.7435838643       18.1170033743       10.6934874470
  C        39.4166322870       17.1478204549       13.2019965284
  C        39.3808426431       17.1155530186       14.6246303115
  C        38.1575597072       17.2083867827       15.3581220890
  C        35.1366961992       26.6263864850       15.3192019621
  C        35.1980288177       26.6463188976       12.5085843796
  C        26.5620071011       17.8298385786       10.3302213078
  C        25.2488781645       17.8849002602       11.0278930249
  C        25.0029026737       18.8777805446       11.9884159112
  C        23.7853934799       18.9100412209       12.6611221703
  C        22.7890501125       17.9484062631       12.3988014120
  C        23.0308279144       16.9819755776       11.4056918636
  C        24.2477339342       16.9479538601       10.7293374829
  C        21.5256556598       17.9313380269       13.1693574071
  C        21.5450595639       17.9123939055       14.5906560881
  C        22.7599655181       17.7834663389       15.3362235902
  C        14.0460086641       17.8323257855       10.2847000376
  C        15.3523169344       17.8978895350       11.0029980212
  C        15.6090896602       18.9105180710       11.9402341284
  C        16.8191455121       18.9385939853       12.6300521697
  C        17.8045103363       17.9567741087       12.4039109017
  C        17.5535401087       16.9696054934       11.4326160618
  C        16.3429999267       16.9371249391       10.7440672157
  C        19.0707768312       17.9420531829       13.1753409066
  C        19.0633226099       17.9338711661       14.5972406313
  C        17.8523756249       17.8358450962       15.3521329441
  C        46.8030882551       17.2244349678       10.1673417319
  C        45.5190709069       17.1744817237       10.9286875806
  C        45.3160112474       16.2035142000       11.9224374036
  C        44.1403039560       16.1921132617       12.6696997307
  C        43.1311766399       17.1510647464       12.4482957309
  C        43.3339334702       18.1047468359       11.4306400925
  C        44.5106617168       18.1204268034       10.6846787147
  C        41.8739870448       17.1545193710       13.2345898057
  C        41.8653165307       17.1152956050       14.6589378361
  C        43.0643605128       17.1977065630       15.4320100668
  C        20.3071952333       17.9376053146       15.3100597408
  C        20.2964943265       17.9249869006       12.4977385974
  C        46.7758685558       17.2225131067        5.8965244562
  C        45.4598494266       17.0901516812        5.2035837576
  C        45.2449578487       16.0863788903        4.2455994205
  C        44.0475072424       16.0340678502        3.5353412059
  C        43.0289316763       16.9810131710        3.7633127236
  C        43.2325633449       17.9499816697        4.7646703157
  C        44.4321107540       18.0094473474        5.4699868510
  C        41.7817511541       16.9902220635        2.9621614741
  C        41.8182815003       17.0299699607        1.5389522235
  C        43.0415245698       17.1572606349        0.8096900974
  C        46.1527776181       26.6371187716        0.7262082719
  C        46.1619159743       26.6559679230        3.5358417662
  C        14.0399621350       17.8284132791        5.7068922670
  C        15.3545686510       17.8969768394        5.0083513438
  C        15.6269374445       18.9189599813        4.0871076985
  C        16.8519019438       18.9545955851        3.4260317350
  C        17.8286585633       17.9669592753        3.6618172372
  C        17.5620743573       16.9713212826        4.6186743508
  C        16.3395205648       16.9355289306        5.2837842220
  C        19.0948800160       17.9452642296        2.8948668292
  C        19.0761085046       17.9345139179        1.4738262292
  C        17.8585845163       17.8362347641        0.7284602152
  C        28.7737213390       14.1186017373       10.4360834267
  C        28.1672951846       12.9387519928       11.1104031346
  C        28.8917651478       12.1960776148       12.0550726913
  C        28.2954395464       11.1124376655       12.6941304951
  C        26.9607629700       10.7507929248       12.4176119149
  C        26.2601443867       11.4731791820       11.4348507590
  C        26.8544364492       12.5547107010       10.7904739990
  C        26.2939140760        9.6704647953       13.1798955236
  C        26.2944655341        9.6984387057       14.6011128330
  C        26.7958484398       10.8163387782       15.3404428691
  C        32.1830235056       21.2402528836       10.1481326572
  C        32.7797440971       22.4050635363       10.8628664801
  C        32.0312320202       23.0897809341       11.8343337903
  C        32.6054599223       24.1232817066       12.5678787579
  C        33.9440283545       24.5055716215       12.3516139262
  C        34.6739379120       23.8429797048       11.3457851754
  C        34.1033646407       22.8019940147       10.6151904259
  C        34.5732495415       25.5763157154       13.1599693754
  C        34.5509195527       25.5447260115       14.5826033999
  C        34.0347613966       24.4289944173       15.3144790498
  C        25.6999567398        8.6168751417       15.3265413028
  C        25.6522874459        8.6184217198       12.5130004844
  C        32.0685787579       21.1626019568        5.8784740950
  C        32.6591934341       22.3196233674        5.1451378103
  C        31.9370735590       22.9630081179        4.1265369944
  C        32.5161972346       24.0017521990        3.3998890518
  C        33.8329934421       24.4292906731        3.6666649133
  C        34.5360755606       23.7972921866        4.7120799763
  C        33.9626604921       22.7543214134        5.4362240308
  C        34.4756214057       25.5171503023        2.8877631079
  C        34.5010734677       25.5146304952        1.4636769201
  C        34.0114113499       24.4143147787        0.6916655068
  C        40.5869537787       17.0340594777        0.8040039475
  C        40.5432608862       16.9891300453        3.6150544313
  C        28.7753792901       14.1100446065        5.8017896362
  C        28.1903720899       12.9612323050        5.0520442874
  C        28.9194092859       12.2821614348        4.0632988796
  C        28.3461605899       11.2101649832        3.3802533355
  C        27.0292747865       10.7884038944        3.6584649141
  C        26.3189768011       11.4579648564        4.6730633778
  C        26.8879804297       12.5290872184        5.3566237450
  C        26.3835834811        9.6892347975        2.8980543261
  C        26.3434266413        9.7066727313        1.4764022796
  C        26.8177434104       10.8213611328        0.7161252013
  C        18.1353992816        3.1808443371       10.3169999664
  C        17.4059848237        4.2779807812       11.0155462006
  C        16.3904716089        3.9994718972       11.9432779720
  C        15.7425789225        5.0393280243       12.6067892369
  C        16.0940689048        6.3831610116       12.3670093255
  C        17.0831826985        6.6528249876       11.4029751343
  C        17.7324385651        5.6156074200       10.7378847069
  C        15.4696171647        7.4907589449       13.1301113435
  C        15.4847353187        7.4899235840       14.5518409094
  C        16.1862602935        6.4963123764       15.3050476411
  C        42.9458270780       31.8594533468       10.0727776986
  C        43.6460867364       30.7718023905       10.8166840455
  C        44.5913056720       31.0930623760       11.8030905996
  C        45.1968830456       30.0874553164       12.5507518390
  C        44.8706756919       28.7343691653       12.3356092752
  C        43.9452263951       28.4201252502       11.3220062031
  C        43.3365288324       29.4253048456       10.5739458607
  C        45.4881640725       27.6550481509       13.1388056041
  C        45.4922755669       27.6807418999       14.5604989717
  C        44.8051897701       28.6887884416       15.3071209957
  C        14.8558326696        8.5624544046       15.2642165227
  C        14.8743472525        8.5625715734       12.4515342558
  C        42.9463727625       31.9615610694        5.8089660071
  C        43.6915405389       30.8854726527        5.0955488880
  C        44.6559082307       31.1913489468        4.1229931135
  C        45.2773066472       30.1717372340        3.4052265934
  C        44.9537338348       28.8213922042        3.6430719028
  C        44.0205303121       28.5237895181        4.6541434672
  C        43.3923676521       29.5405603074        5.3663774472
  C        45.5625996841       27.7239596839        2.8577865755
  C        45.5328685232       27.7173132849        1.4364907909
  C        44.8264990227       28.7074839529        0.6835172879
  C        35.1121178543       26.6103904328        0.7656370026
  C        35.0817186771       26.5768600617        3.5768972936
  C        18.1485922941        3.2468143047        5.7066822768
  C        17.4296838532        4.3435272184        4.9976485685
  C        16.4147234945        4.0520912144        4.0738134598
  C        15.7662373505        5.0826039265        3.3984257097
  C        16.1204616679        6.4279577386        3.6212770051
  C        17.1114738425        6.7114824326        4.5788997796
  C        17.7593330111        5.6827008275        5.2586914873
  C        15.4899073248        7.5235727019        2.8487397840
  C        15.4957295782        7.5068376435        1.4275896896
  C        16.1924255872        6.5051071495        0.6808684278
  H        10.6720582053       12.4658013853        3.9045372437
  H        11.6940877630       10.5508028376        2.6627282926
  H        15.3912756850       11.1683828270        4.7720234541
  H        14.3508737721       13.0712229419        6.0172719649
  H        13.3758263385       11.6307498066        1.2013122960
  H        50.3225605006       22.7491646946        3.9877156390
  H        49.3193477621       24.6235013122        2.6815041753
  H        45.6410593871       24.1600839657        4.8627174978
  H        46.6620294151       22.2890791898        6.1709622857
  H        47.6293495583       23.5758171686        1.2462655532
  H        14.8714935149        8.5879379130        4.6085950312
  H        50.2866506727       22.7026560730       12.0600834165
  H        49.2686006181       24.5754340984       13.3602381284
  H        45.6098096458       24.1086013045       11.1462847177
  H        46.6520842529       22.2532847460        9.8319457578
  H        47.6072417285       23.5516530198       14.7968765269
  H        40.6676584450       17.1850986695       11.4598632857
  H        48.6866719856       14.0952535059        7.7996104058
  H        10.6807264203       12.4662906316       12.0930528527
  H        11.6888437014       10.5242076970       13.2966767948
  H        15.3931862102       11.1589911040       11.2061107619
  H        14.3647731209       13.0875220395        9.9909211242
  H        13.3754127672       11.6216666216       14.7530731982
  H        47.9296310536       14.2190447316        9.7108282424
  H        47.7803569075       14.3755275190        6.4946776957
  H        49.0831550009       18.5525392583       10.8673771730
  H        10.4153524900       14.1344842802        7.9988300408
  H        24.5172429354        3.0282180067        3.9461370130
  H        25.6824786095        4.8808528009        2.7369817030
  H        23.2983931046        7.7586165275        4.8656590118
  H        22.1506732760        5.8960948516        6.0764803139
  H        23.8543962019        5.7901371600        1.3089931897
  H        36.3435189707       32.1674760836        3.9906052084
  H        35.2058384721       30.3367669394        2.7358451616
  H        37.4937252780       27.4255720299        4.9247449009
  H        38.6106344452       29.2689463108        6.1899397931
  H        36.9924635008       29.4336153803        1.3238725829
  H        25.8327835503        8.6047582204        4.6705000124
  H        36.4582033139       32.2344299260       12.1247675467
  H        35.3558482000       30.4204406688       13.4286561740
  H        37.5640711115       27.4828901066       11.1916482888
  H        38.6403060503       29.3085063412        9.8742510321
  H        37.0313750440       29.4611248350       14.8770203269
  H        46.1088191361       26.5872237091       11.3855346040
  H        44.6681940327       35.1160852105        7.8138204615
  H        24.4247622779        3.0420393081       12.1037133613
  H        25.5467823493        4.8787646103       13.3642665808
  H        23.1433820590        7.7684991656       11.2734725931
  H        22.0343905761        5.9196912214       10.0114364122
  H        23.7980323445        5.7929155633       14.8613633039
  H        44.9535516273       34.3904367592        9.6952490876
  H        44.9009352182       34.2064789477        6.4905882922
  H        40.6664956512       33.2092815184       10.8532874480
  H        23.1508906175        1.9577692975        8.0072275658
  H        25.7837935623       19.6158698502        3.9222166366
  H        23.6249882306       19.6695552611        2.6784773562
  H        22.2933885791       16.2005329119        4.8452770704
  H        24.4605550703       16.1582835134        6.0897358694
  H        23.7048601221       17.6495514523        1.2432896370
  H        35.0203217407       15.4003998448        3.9160749173
  H        37.1548955370       15.3272129651        2.6398672873
  H        38.6604983268       18.6092416812        4.9800162384
  H        36.5239431471       18.6630596957        6.2636316490
  H        37.1881306913       17.2817921646        1.2568732359
  H        20.3250486147       17.9504657465        4.6552528290
  H        35.2393716455       15.3937677249       12.0746093176
  H        37.3729905766       15.3624636327       13.3531378414
  H        38.6903871427       18.8658956893       11.2337784181
  H        36.5450078388       18.8865861555        9.9510932917
  H        37.2292070481       17.3462496987       14.8114009127
  H        35.1820676645       26.6738840546       11.4206457495
  H        28.5067731813       21.0745854395        7.8990608250
  H        25.7813177388       19.6107757809       12.1893343216
  H        23.5912395099       19.6830125927       13.4014932058
  H        22.2683835585       16.2339574543       11.1984796414
  H        24.4513295494       16.1895975523        9.9772268811
  H        23.6940141759       17.6524926048       14.7977695906
  H        28.9699107333       21.7287397735        9.7569384700
  H        29.1748600165       21.7083503370        6.5517095309
  H        32.0817000567       18.6094422763       10.9857184889
  H        27.3689511311       19.0086544698        8.0849764930
  H        14.8494355704       19.6695085678       12.1131116319
  H        17.0158753145       19.7283426879       13.3519409301
  H        18.3057002895       16.2048430399       11.2501402205
  H        16.1354975640       16.1619784177       10.0102334475
  H        16.9117685144       17.7278000118       14.8200360328
  H        46.0966065301       15.4677840559       12.1017428788
  H        43.9873181214       15.4269389632       13.4276071855
  H        42.5680470245       18.8567983239       11.2523841427
  H        44.6775310579       18.8717691609        9.9162194972
  H        44.0111260726       17.3291426352       14.9157293555
  H        20.2944015098       17.9598743049       11.4097631157
  H        46.0339873850       15.3621491527        4.0560379208
  H        43.8905486749       15.2566662508        2.7906702197
  H        42.4541201040       18.6868663652        4.9516873996
  H        44.6060981315       18.7804957415        6.2167688866
  H        43.9710562504       17.2569113375        1.3624611782
  H        46.1987591658       26.6824581120        4.6232871467
  H        52.7411813517       21.0626512928        8.1946156500
  H        14.8694564430       19.6786863982        3.9077514704
  H        17.0659937977       19.7501128863        2.7155630709
  H        18.3095459260       16.2029393133        4.8049214499
  H        16.1159647357       16.1562825284        6.0082899994
  H        16.9226079364       17.7286413667        1.2683890835
  H        52.3225567162       21.6736257424        6.2945417165
  H        52.0134647206       21.7025004504        9.4954520104
  H        49.0645623131       18.6060094613        5.2050971478
  H        13.2470739503       19.0163909581        7.9762387914
  H        29.9177603049       12.4840829180       12.2742217379
  H        28.8571000761       10.5351743983       13.4253063559
  H        25.2291972568       11.2043953445       11.2140434094
  H        26.3094962694       13.1342046933       10.0493807586
  H        27.1368355627       11.6926802937       14.7976668278
  H        31.0010948292       22.7907511359       12.0124363010
  H        32.0180657042       24.6486565041       13.3177188509
  H        35.7093051468       24.1279307489       11.1702584713
  H        34.6760519409       22.2666718736        9.8613449214
  H        33.6806502748       23.5613671730       14.7650443776
  H        25.6722120655        8.5978800655       11.4247656925
  H        30.9269409551       22.6251614606        3.9051515031
  H        31.9451637067       24.4976573453        2.6179969644
  H        35.5552789474       24.1113801889        4.9277107353
  H        34.5167858722       22.2490587439        6.2239441361
  H        33.6401136968       23.5347704144        1.2099624003
  H        40.5289477057       16.9348138656        4.7021422866
  H        32.5191592115       14.1041958676        8.3541724689
  H        29.9347585710       12.6049837529        3.8440849093
  H        28.9208558784       10.6824868998        2.6221573901
  H        25.2994069591       11.1502795478        4.8958775459
  H        26.3320228701       13.0584909118        6.1263028425
  H        27.1743300233       11.7017990214        1.2427637151
  H        33.2379597838       14.0623359146        6.4867823135
  H        33.4013843439       14.3910057371        9.7085853473
  H        32.1601745378       18.4793622269        5.1762226250
  H        30.1897477989       14.1290601266        8.1614370993
  H        16.1186478404        2.9629314353       12.1298120713
  H        14.9532574750        4.8197697986       13.3225355426
  H        17.3652305763        7.6857705610       11.2096675075
  H        18.5141960123        5.8184725931       10.0097963946
  H        16.7528256168        5.7389448916       14.7716010749
  H        44.8274327584       32.1401329844       11.9775391737
  H        45.9365241301       30.3411458070       13.3069343233
  H        43.6828242212       27.3780383431       11.1515654167
  H        42.6002654124       29.1899905161        9.8089378409
  H        44.2297628870       29.4365135513       14.7688422077
  H        14.8506267239        8.5459061708       11.3633109062
  H        44.8993381714       32.2340197430        3.9313629823
  H        46.0240259833       30.4129167627        2.6517920711
  H        43.7637695644       27.4840507132        4.8459194897
  H        42.6460895335       29.3177464114        6.1250313259
  H        44.2679372802       29.4703551389        1.2180639386
  H        35.0342887229       26.5864342592        4.6643005070
  H        36.6052648658       35.1337512217        8.1809620583
  H        16.1439004946        3.0124764401        3.9039190831
  H        14.9741011277        4.8555737425        2.6881897636
  H        17.3945955728        7.7470196942        4.7560084252
  H        18.5419428537        5.8933889724        5.9836679775
  H        16.7638407882        5.7548294556        1.2192681889
  H        36.2786997173       34.4821021022        6.2729593623
  H        36.3809611497       34.2089214414        9.4998464621
  H        40.5787112281       33.2017725245        5.1541886500
  H        17.4717514138        1.9472050672        7.9740168313
  H        30.1520088664       19.8896209468       12.4118508793
  H        28.6057966500       18.7940470106        3.8937372094
  H        31.0030235179       16.1167085583       12.9970498911
  H        27.8934636601       19.8532289626       14.7662089301
  H        29.4211532145       15.8189307288       14.1951325316
  H        32.3508857917       17.7642641574        1.3749839525
  H        18.8531620867        0.8688498469       12.3351659793
  H        40.5277641422       35.2291088678        3.9520344679
  H        42.3241446825       34.4188671154        3.5908233122
  H        22.0878854772        0.6920044449       12.3511686244
  H        11.5967878786       18.7126722715       12.3822026353
  H        52.2649544578       18.4312471900        3.6779502649
  H        49.2548385761       16.4775309345        3.5845988639
  H        10.1505407725       15.7982621312       12.2920216340
  H        50.8500033623       17.6928324104        3.9540643653
  H        10.0460399434       17.3947577559       12.0518573143
  H        20.2147750005        0.0023403902       12.0420088345
  H        39.1832858137       36.1243359497        3.6865946592
 Ni        30.4006260823       17.9756558486        2.6627996394
 Ni        30.8598417331       16.7927954078       -0.0812632811
 Ni        29.3326590291       18.5129655328        0.3311225003
 Ni        29.4643157367       18.2375850225       13.9927907781
  O        10.6496740086       14.3651404399        5.4857505043
  O        12.6129779334       14.6573208725        6.5838605282
  O        49.1472860994       16.8459680733        7.9895086465
  O        50.3499864128       20.9365709418        5.6483142163
  O        48.3483632116       20.5932130408        6.6659763053
  O        11.0511294704       17.0539905231        6.5005814624
  O        50.3206480829       20.8816981209       10.4068864580
  O        48.3465603404       20.5866507465        9.3269536980
  O        49.5430705364       18.2483924329       10.0682615502
  O        12.3586357481       18.6246830994        7.9997751018
  O        48.6931068975       14.1486778532        6.7511224172
  O         8.2095255103       14.2106295475        9.3228202780
  O        10.7349852286       14.5067188896       10.6643940600
  O        12.5716491486       14.5826785823        9.3286590440
  O        22.8460716768        2.0449371538        5.4869471087
  O        21.6077513043        3.5940472699        6.5878300945
  O        42.0579441682       34.1373751813        7.9787328308
  O        37.9808712117       33.1327740560        5.5716513686
  O        39.2181666809       31.5748673299        6.6665816602
  O        20.3084227822        1.0396892520        6.5021405206
  O        38.0236397337       33.1831570517       10.4166514678
  O        39.2179345128       31.5824112754        9.3281427739
  O        40.6520805571       33.7691540242       10.0600868614
  O        18.2564159361        1.3759714315        7.9967079837
  O        44.6222167024       35.1005278987        6.7586618156
  O        24.2052919294        0.0001204803        9.3207679849
  O        22.7530660292        2.0582357798       10.5846002934
  O        21.6251108667        3.5970760344        9.3446005120
  O        27.4534202376       18.6873350844        5.4997590286
  O        26.6985898074       16.9046318934        6.6789300863
  O        30.6355666986       19.3373339757        8.0719688636
  O        33.4290791233       16.2628611401        5.6486657827
  O        34.2215735167       18.0943942091        6.7417192001
  O        29.5952134653       17.0089854443        6.6557502576
  O        33.5537732025       16.3463531093       10.5667040513
  O        34.2662156754       18.1731702410        9.4097299366
  O        31.6486012122       18.3025776223       10.1727845481
  O        30.2932629498       15.0950620734        8.1700228520
  O        28.5465782829       21.0220708808        6.8418744678
  O        28.5150741974       20.9477122731        9.4001300676
  O        27.4524183254       18.6756553785       10.6606563937
  O        26.6890429035       16.9260141669        9.4206663571
  O        13.1467675054       18.6937527732       10.5864789491
  O        13.9184634396       16.9162427341        9.4046739699
  O        50.5951582194       19.3500721960        8.0204502840
  O        47.6800133681       16.3285705351       10.4185912727
  O        46.9493237412       18.1760724528        9.3260864241
  O        11.0686522368       17.0158543102        9.4896663430
  O        47.6741638790       16.3357497658        5.6527906459
  O        46.9225053032       18.2350834881        6.6617405037
  O        49.5684265649       18.3178041312        5.9822542230
  O        10.3185148692       15.1003741089        7.9971685696
  O        52.6707038216       21.0280011250        9.2417949183
  O        12.1467584100       20.8913494471        6.6732928380
  O        13.1051849831       18.6141997564        5.3262529842
  O        13.9547389980       16.9861726399        6.6657754550
  O        29.9368184943       14.5082502683       10.8157794623
  O        28.0812764065       14.6510989544        9.5018914624
  O        32.1077170895       16.7902075618        8.1567284225
  O        30.9679773300       20.9483304221       10.4147837530
  O        32.9454584585       20.5944974476        9.3375228589
  O        29.5596072867       17.0652748833        9.6519041827
  O        30.8409729172       20.8740019482        5.6592694799
  O        32.8402774977       20.5108973788        6.6648184545
  O        31.6184802036       18.1671239138        5.9197476468
  O        28.2596990530       18.6213222799        8.0762551285
  O        32.4899396437       14.2100557359        9.4157464361
  O        32.3674523422       14.1393652432        6.9112209879
  O        29.9551189269       14.5183769206        5.4895582457
  O        28.0550554465       14.5909915041        6.7458429432
  O        17.8893145609        1.9664408141       10.6627080852
  O        18.9563887989        3.5270325803        9.4078780592
  O        39.1685363958       34.1385805818        7.9971085553
  O        43.2801101277       33.0589393583       10.3316232118
  O        42.0342736622       31.5065502251        9.2415803375
  O        20.3176512003        1.0368837137        9.4799430009
  O        43.2759978397       33.1825837453        5.5749159573
  O        42.0051805277       31.5841564025        6.5830526752
  O        40.5790394191       33.7753034256        5.9357099710
  O        22.3674165162        1.3850469519        7.9978735594
  O        36.6729525071       35.0995540189        9.2334724964
  O        16.4458474094        0.0638526117        6.6680962998
  O        17.9364609161        2.0431612391        5.3265111565
  O        18.9193789681        3.5930442664        6.6659082045
  O        29.5607502108       18.8361660712        4.0956082027
  O        29.7775577664       19.0515994632       12.0845488412
  O        31.6407517034       15.9770046264       12.1593252755
  O        31.6867764275       17.0748165790        1.5733965595
  O        30.1913519910       16.4153920661       14.1470761370
  O        28.8549003519       19.7792192443       14.9068481982
  O        39.4567123639       35.2437439968        4.0020359782
  O        19.1414129991        0.0044771783       11.9904654600
  O        41.9696853917       35.1728730060        4.0872145692
  O        21.6911922813       -0.0693571342       11.8956695437
  O        51.3648718742       18.6144356336        4.0053238244
  O        10.7508519142       18.7472391377       11.9049358588
  O        50.0793755436       16.4127136291        4.0916368346
  O         9.5243793087       16.4831470406       11.9911723121
 Zr         9.2965629384       16.0533131353        6.1819797415
 Zr        49.8349662111       16.0072021445        9.7466065888
 Zr        22.0732365369        0.0302660748        6.1886461380
 Zr        42.4607602242       35.1533395687        9.8006113138
 Zr        29.5609848038       19.0531810132        6.2605436015
 Zr        29.5389528361       19.1748051788        9.9439167962
 Zr        11.0373666101       19.0521867205        9.8275335751
 Zr        11.0432010495       19.1551685228        6.2512708556
 Zr        31.3093192419       16.0734375031        9.9589769863
 Zr        31.3850978052       15.9612770281        6.4496968241
 Zr        18.6010834193       -0.0018652180        9.7635088583
 Zr        18.5065540225       -0.0083899739        6.2135173382
 Zr        12.3010884627       16.3235006650        7.9908379680
 Zr        48.6146259557       18.8324371133        8.0095567086
 Zr        20.3158824139        2.4741329069        7.9901682457
 Zr        40.6429624891       32.6864958590        7.9780966742
 Zr        28.3142715889       16.3335307180        8.1173804360
 Zr        32.5764681705       18.8282140596        8.0829140117
  H        29.1706853572       17.6085286562        1.6152528992
  H        32.5379763327       16.2698747203       12.3931498251
