     563
 i =      139, E =     -4694.9508900775
  C        11.8589474539       14.0535942219        5.7416558938
  C        12.4564155422       12.8906060871        5.0236406821
  C        11.7048810114       12.1720793693        4.0814880195
  C        12.2812096999       11.1099129605        3.3890693370
  C        13.6216267913       10.7396077195        3.6170954102
  C        14.3545291051       11.4426746990        4.5911774245
  C        13.7817226695       12.5076258814        5.2828074191
  C        14.2611372020        9.6489987036        2.8435683508
  C        14.2561506649        9.6568371504        1.4218462196
  C        13.7427811891       10.7588116658        0.6678561894
  C        49.1270310381       21.2329230060        5.8795888532
  C        48.5505686352       22.4009253692        5.1525861211
  C        49.3004452952       23.0679434130        4.1712259493
  C        48.7335971740       24.1071953165        3.4381227500
  C        47.4032484472       24.5094121801        3.6670785609
  C        46.6725343978       23.8608978198        4.6810354163
  C        47.2348699595       22.8158922527        5.4103157488
  C        46.7730153535       25.5871323283        2.8697998183
  C        46.7621463065       25.5575668283        1.4480186198
  C        47.2620525892       24.4425121890        0.7044418526
  C        14.8601475617        8.5705474919        0.7085315522
  C        14.8921372364        8.5971028035        3.5201617923
  C        49.1134638023       21.2034996216       10.1453415264
  C        48.5283237309       22.3649449175       10.8723079165
  C        49.2674517784       23.0254039492       11.8655128593
  C        48.6912030963       24.0600279175       12.5969134189
  C        47.3609276912       24.4572418079       12.3584633682
  C        46.6407202819       23.8126812416       11.3345427654
  C        47.2141498796       22.7766971688       10.6027879078
  C        46.7224948774       25.5321634199       13.1495728127
  C        46.7343728881       25.5284847656       14.5712902934
  C        47.2497865440       24.4292622230       15.3276751575
  C        40.6162606252       17.0887639693       15.3060407113
  C        40.6248548335       17.1027611239       12.4960603685
  C        11.8830356575       14.0865125372       10.2852816063
  C        12.4720702899       12.9104630209       10.9891150190
  C        11.7147522602       12.1780520796       11.9160767713
  C        12.2810786422       11.0954924077       12.5845106111
  C        13.6195305820       10.7207361577       12.3520048190
  C        14.3570950532       11.4352259164       11.3900297050
  C        13.7919541627       12.5165286371       10.7173132000
  C        14.2531110248        9.6240955069       13.1225917182
  C        14.2519227212        9.6442478415       14.5444574200
  C        13.7420522925       10.7531663446       15.2915911446
  C        22.5120856407        3.2454265653        5.7531319805
  C        23.2250507854        4.3530578823        5.0546089517
  C        24.2240277883        4.0781100038        4.1089065194
  C        24.8478923252        5.1208417348        3.4282055340
  C        24.4883018348        6.4613873662        3.6721000351
  C        23.5180085443        6.7277906066        4.6554645351
  C        22.8899925976        5.6871192025        5.3348496347
  C        25.0864627382        7.5726597191        2.8963745380
  C        25.0577284557        7.5663922064        1.4745073710
  C        24.3674583033        6.5593576116        0.7279457652
  C        38.2972820098       31.9221601176        5.8469426164
  C        37.5564331577       30.8316131936        5.1408284072
  C        36.5957352813       31.1367952629        4.1628462028
  C        35.9627364467       30.1196910068        3.4512575662
  C        36.2694372287       28.7645263511        3.6912193020
  C        37.2010571393       28.4675782647        4.7057569444
  C        37.8390975289       29.4837840614        5.4161797260
  C        35.6504378383       27.6753879116        2.8943029506
  C        35.6786095872       27.6910168989        1.4683844247
  C        36.3889828980       28.6864251313        0.7284575556
  C        25.6675873209        8.6441033915        0.7547088944
  C        25.6768300310        8.6513299354        3.5669829470
  C        38.3218225040       31.9555119857       10.1582305483
  C        37.5880767460       30.8812196277       10.8956942029
  C        36.6628181934       31.1903288010       11.9063030796
  C        36.0384508319       30.1747143949       12.6302265270
  C        36.3185913306       28.8163373591       12.3719952056
  C        37.2208670982       28.5180212317       11.3304821368
  C        37.8484179218       29.5305171214       10.6079240456
  C        35.6967072958       27.7191360628       13.1564077650
  C        35.7028352627       27.7131724738       14.5829667354
  C        36.4001338161       28.6973928620       15.3494349777
  C        46.1363118039       26.6210625491       15.2814884361
  C        46.0883392538       26.5804694288       12.4735762382
  C        22.4627397955        3.2568726651       10.2585777125
  C        23.1594425235        4.3655284303       10.9809608231
  C        24.1613290598        4.0795265213       11.9223778597
  C        24.7908736983        5.1092901061       12.6183896369
  C        24.4393952773        6.4559549655       12.3962254632
  C        23.4610879117        6.7350556122       11.4227930452
  C        22.8269541146        5.7057277457       10.7273246735
  C        25.0666928045        7.5567367204       13.1716563455
  C        25.0477502675        7.5577695699       14.5948585565
  C        24.3600778695        6.5567990516       15.3508560705
  C        26.6708464718       17.8736988922        5.7287120829
  C        25.3726257176       17.9669359661        5.0004737361
  C        25.1345761362       18.9460565858        4.0223978133
  C        23.9067397512       18.9963908243        3.3618402808
  C        22.8819488599       18.0687729787        3.6476042666
  C        23.1199111581       17.1145219330        4.6557729638
  C        24.3436028510       17.0616032136        5.3181798209
  C        21.6026115396       18.0580013418        2.8908589385
  C        21.6021722739       18.0240262795        1.4677128225
  C        22.8069862947       17.8799382353        0.7101855820
  C        34.4408798782       17.1955999615        5.9137663222
  C        35.7338793352       17.1464657160        5.1775614221
  C        35.9454604296       16.1683027044        4.1917368165
  C        37.1243254583       16.1570603642        3.4527761999
  C        38.1269361422       17.1204575631        3.6790756393
  C        37.9202443076       18.0767907056        4.6921556551
  C        36.7375925434       18.0954836725        5.4279241955
  C        39.3783574811       17.1280165319        2.8876110802
  C        39.3676073094       17.1237884004        1.4650528899
  C        38.1576805467       17.2342581893        0.7109144493
  C        20.3560296536       18.0383210525        0.7575188922
  C        20.3749454826       18.0517478774        3.5722636501
  C        34.4357972132       17.2367787538       10.1910985100
  C        35.7360102941       17.1399604093       10.9059744601
  C        35.9295168719       16.1727019589       11.9048574722
  C        37.1200733221       16.1392106889       12.6256221548
  C        38.1455698755       17.0718876560       12.3712400354
  C        37.9569751611       18.0105389843       11.3384531799
  C        36.7666077613       18.0495815524       10.6190246644
  C        39.3945424098       17.0877310782       13.1644953995
  C        39.3758890983       17.1047418997       14.5869169908
  C        38.1617647201       17.2247982934       15.3337587044
  C        35.0648652477       26.6379137308       15.2894406983
  C        35.0949976936       26.6506264796       12.4759556947
  C        26.6505617612       17.8328025448       10.3846086140
  C        25.3393893074       17.9142350009       11.0850394009
  C        25.0809148345       18.9170802292       12.0331434037
  C        23.8465486005       18.9693405909       12.6774917141
  C        22.8404610458       18.0181543585       12.4059030090
  C        23.0966592243       17.0422100364       11.4244251600
  C        24.3273751137       16.9892146883       10.7745663721
  C        21.5661719486       18.0084795811       13.1662684268
  C        21.5833001742       17.9974867426       14.5888772779
  C        22.7975826836       17.8671034149       15.3343631963
  C        14.0540175289       17.8347629312       10.2867380645
  C        15.3664383324       17.9102017043       11.0039379350
  C        15.6201770540       18.9250648170       11.9408962534
  C        16.8333898157       18.9674288848       12.6273394370
  C        17.8329534599       17.9983839238       12.4021521122
  C        17.5840634872       17.0080173337       11.4318989695
  C        16.3699268950       16.9613521138       10.7464430464
  C        19.1053360097       18.0011964471       13.1731905654
  C        19.1012960861       18.0053466535       14.5977832422
  C        17.8943861659       17.9037805851       15.3593823822
  C        46.8016002792       17.2158962131       10.1564061511
  C        45.5066692782       17.1451437083       10.8948391758
  C        45.2995468834       16.1611551221       11.8742495734
  C        44.1144884651       16.1336094462       12.6050505808
  C        43.1047499414       17.0897750822       12.3795914967
  C        43.3081815165       18.0520699135       11.3717548100
  C        44.4942636187       18.0835681524       10.6417644635
  C        41.8514165888       17.0952376195       13.1701117705
  C        41.8609156500       17.1007407327       14.5928072581
  C        43.0718446477       17.2018184170       15.3468835837
  C        20.3460944071       18.0248454101       15.3108305070
  C        20.3340916634       17.9897901612       12.4958270249
  C        46.7856109134       17.2335151697        5.8852729752
  C        45.4851572984       17.1330281228        5.1630337507
  C        45.2657015946       16.1350682588        4.2011426937
  C        44.0790649326       16.1108317811        3.4722230562
  C        43.0813778085       17.0819127331        3.6868183510
  C        43.2924785366       18.0515316771        4.6851551945
  C        44.4798665180       18.0816985976        5.4097766132
  C        41.8329190040       17.1016047624        2.8926123840
  C        41.8516917145       17.1024401768        1.4707576070
  C        43.0676874068       17.1995680140        0.7241794021
  C        46.1540805932       26.6374368739        0.7262728691
  C        46.1628783593       26.6561928876        3.5359356258
  C        14.0517299011       17.8368791089        5.7075725874
  C        15.3763851017       17.9284052626        5.0167097008
  C        15.6388566452       18.9534741155        4.0942281410
  C        16.8676413532       19.0142280302        3.4383718637
  C        17.8685119067       18.0498642969        3.6762054465
  C        17.6118118390       17.0520170135        4.6355256354
  C        16.3844912661       16.9909453633        5.2954231739
  C        19.1403196194       18.0512537605        2.9060788458
  C        19.1196859241       18.0305056280        1.4823313045
  C        17.9034601356       17.9147180492        0.7365791161
  C        28.7992572556       14.0801404265       10.3642862856
  C        28.1963874825       12.9129908511       11.0590124831
  C        28.8882727250       12.2431567405       12.0799379413
  C        28.2883325846       11.1731188661       12.7388291948
  C        26.9838317721       10.7514276379       12.4062868900
  C        26.3190608688       11.4031240893       11.3508067412
  C        26.9147555715       12.4723299348       10.6887444004
  C        26.3078279729        9.6783920382       13.1695644430
  C        26.2689895377        9.7187835313       14.5907049312
  C        26.7340274722       10.8484518230       15.3361121911
  C        32.0685763002       21.1714969879       10.2316914512
  C        32.6489571854       22.3540421143       10.9248378731
  C        31.9304621855       23.0209403022       11.9321180575
  C        32.5073222782       24.0807453042       12.6265123760
  C        33.8227595222       24.5074813440       12.3462404867
  C        34.5169117160       23.8625181873       11.3023441881
  C        33.9431547772       22.8009689308       10.6055616908
  C        34.4690689335       25.5837849929       13.1353555084
  C        34.4711826888       25.5541809831       14.5607973978
  C        33.9813294490       24.4339350011       15.3007709718
  C        25.6682463072        8.6355099902       15.3094197385
  C        25.6875629981        8.6161020001       12.4966391478
  C        32.0344337269       21.1336083024        5.7968946310
  C        32.5906090555       22.3097187749        5.0741431737
  C        31.8812692911       22.9498245879        4.0432415503
  C        32.4569552709       24.0077597777        3.3415642799
  C        33.7597158354       24.4626326667        3.6410015491
  C        34.4429065344       23.8417649106        4.7073359176
  C        33.8735850185       22.7824561320        5.4072381386
  C        34.4118635437       25.5469115586        2.8680055482
  C        34.4402705512       25.5362083070        1.4423031686
  C        33.9657293185       24.4257519616        0.6785401631
  C        40.6114820254       17.0943120048        0.7514295421
  C        40.6045139057       17.1345797553        3.5623390404
  C        28.7129723559       14.0919792165        5.8175327640
  C        28.0951984726       12.9504725545        5.0875273954
  C        28.8092830969       12.2967646639        4.0706404535
  C        28.2272861706       11.2416816207        3.3734982399
  C        26.9150969794       10.8144936181        3.6635769862
  C        26.2199218411       11.4578170701        4.7058440240
  C        26.7994986056       12.5135447150        5.4067479975
  C        26.2736275789        9.7240276623        2.8905186375
  C        26.2537758962        9.7414561169        1.4679093404
  C        26.7250084062       10.8607098247        0.7121992916
  C        18.1354042697        3.1804331790       10.3170857662
  C        17.4060705341        4.2778172377       11.0158655156
  C        16.3899273404        3.9994787983       11.9428912433
  C        15.7421279631        5.0394691372       12.6063727264
  C        16.0943592574        6.3831480886       12.3670480148
  C        17.0842852330        6.6526655766       11.4038669483
  C        17.7334531817        5.6153050827       10.7388553444
  C        15.4698624000        7.4908797567       13.1300302089
  C        15.4852561261        7.4904220079       14.5517559341
  C        16.1869911262        6.4969168410       15.3049017544
  C        42.9455875692       31.8595757921       10.0727727702
  C        43.6461366494       30.7718245998       10.8167369197
  C        44.5921421523       31.0932567394       11.8023095541
  C        45.1979802208       30.0878186507       12.5500570782
  C        44.8712063736       28.7347715829       12.3357078595
  C        43.9447788663       28.4203078884       11.3230936032
  C        43.3357754576       29.4253591199       10.5750242022
  C        45.4890821448       27.6555490414       13.1388775462
  C        45.4934502404       27.6811381526       14.5605969981
  C        44.8064314283       28.6892062244       15.3072545083
  C        14.8561727451        8.5628955035       15.2640724831
  C        14.8743942649        8.5624964723       12.4513897768
  C        42.9462822140       31.9616860085        5.8091050255
  C        43.6915806207       30.8854448210        5.0954891636
  C        44.6568049967       31.1913792117        4.1238401195
  C        45.2784862960       30.1718464581        3.4061095943
  C        44.9542438839       28.8215537166        3.6431657381
  C        44.0199960468       28.5238303695        4.6532049216
  C        43.3915596098       29.5405596182        5.3653477006
  C        45.5635245980       27.7241857425        2.8579175652
  C        45.5339846339       27.7175233663        1.4365915557
  C        44.8277151172       28.7078102867        0.6836558621
  C        35.0507000532       26.6277390668        0.7376545849
  C        35.0334133547       26.6030592723        3.5516329819
  C        18.1487867166        3.2466960233        5.7067482645
  C        17.4304321633        4.3437566654        4.9971259826
  C        16.4147283130        4.0526137789        4.0740915788
  C        15.7664662624        5.0833060672        3.3986792387
  C        16.1216391489        6.4284652830        3.6209523025
  C        17.1136596973        6.7117428850        4.5775568918
  C        17.7612732028        5.6827531313        5.2573312636
  C        15.4909925149        7.5241983701        2.8485549730
  C        15.4966502531        7.5075835871        1.4274035938
  C        16.1933941724        6.5058623295        0.6807155916
  H        10.6728767277       12.4664434164        3.9041518036
  H        11.6949539883       10.5517513529        2.6622607122
  H        15.3913662270       11.1676181427        4.7733302290
  H        14.3511289442       13.0703609903        6.0186608236
  H        13.3757216784       11.6309690470        1.2010717532
  H        50.3229817983       22.7475937114        3.9860920238
  H        49.3199989780       24.6221901043        2.6802999343
  H        45.6432512103       24.1621209933        4.8646426638
  H        46.6639053681       22.2910834903        6.1727380812
  H        47.6304787453       23.5760320012        1.2460287275
  H        14.8726810410        8.5883268485        4.6084727922
  H        50.2873591165       22.7023043343       12.0607002243
  H        49.2695263708       24.5752521602       13.3606199020
  H        45.6114800454       24.1102904954       11.1451651979
  H        46.6533167758       22.2548807996        9.8310042224
  H        47.6084680698       23.5520852711       14.7968146985
  H        40.6280198494       17.0663345838       11.4083047374
  H        48.6870083520       14.0948763215        7.7999574424
  H        10.6815687932       12.4677472694       12.0941090791
  H        11.6893656896       10.5257580612       13.2977985679
  H        15.3921328517       11.1564133474       11.2032779574
  H        14.3641636403       13.0850527649        9.9880235031
  H        13.3750601623       11.6217394755       14.7530123538
  H        47.9302234133       14.2183659084        9.7110347216
  H        47.7799162080       14.3732115833        6.4951118669
  H        49.0833234233       18.5517854906       10.8669639943
  H        10.4164941561       14.1344394871        7.9988894025
  H        24.4895797011        3.0408141312        3.9172065729
  H        25.6226791266        4.9065358777        2.6952459422
  H        23.2325572055        7.7593979101        4.8506948591
  H        22.1187281145        5.8842905592        6.0753802658
  H        23.8128363711        5.7973417918        1.2676708655
  H        36.3676549804       32.1809047395        3.9613244811
  H        35.2193856401       30.3682890540        2.6968581600
  H        37.4518526592       27.4273498568        4.9035812675
  H        38.5818860953       29.2535150142        6.1766074134
  H        36.9590425028       29.4342115285        1.2721052055
  H        25.7191164110        8.6295313457        4.6544676148
  H        36.4518863967       32.2351651035       12.1233898333
  H        35.3177471592       30.4289754713       13.4043874848
  H        37.4551545986       27.4768590917       11.1180954354
  H        38.5659349368       29.2959390075        9.8250736311
  H        36.9798290957       29.4530388426       14.8271184714
  H        46.1095516053       26.5879219180       11.3855352841
  H        44.6682851617       35.1161698089        7.8139915112
  H        24.4377557316        3.0411257001       12.0908399283
  H        25.5708142080        4.8787730548       13.3410195032
  H        23.1774169523        7.7697737205       11.2413954983
  H        22.0560348323        5.9201826356        9.9907414684
  H        23.7993985532        5.7933539199       14.8193357574
  H        44.9540045782       34.3906978739        9.6954288007
  H        44.9016461335       34.2068671390        6.4905783850
  H        40.6635291140       33.2071580850       10.8519861724
  H        23.1502829571        1.9578883226        8.0054169174
  H        25.9200909171       19.6615870968        3.7895800135
  H        23.7301511149       19.7632752298        2.6107430367
  H        22.3458672975       16.3858839681        4.8878839900
  H        24.5320195321       16.3083009123        6.0789943567
  H        23.7459863261       17.7428466718        1.2383995301
  H        35.1716960496       15.4261050843        4.0105740232
  H        37.2836913959       15.3926454224        2.6954543731
  H        38.6858632055       18.8286146745        4.8722851218
  H        36.5638816779       18.8503250613        6.1912723817
  H        37.2186002930       17.3596779165        1.2423556970
  H        20.3800898838       18.0937354809        4.6601760950
  H        35.1281238179       15.4685503414       12.1174086126
  H        37.2669327621       15.3859994415       13.3965274741
  H        38.7408864216       18.7371689112       11.1354512264
  H        36.6040281026       18.7942807821        9.8437701596
  H        37.2255504158       17.3436264296       14.7960649304
  H        35.0652957526       26.6787016975       11.3881063014
  H        28.5102317193       21.1104411577        7.9830431119
  H        25.8554289959       19.6502986283       12.2481730469
  H        23.6490370267       19.7522976754       13.4064615271
  H        22.3334699225       16.2980577639       11.2059505134
  H        24.5345237416       16.2213795213       10.0332331653
  H        23.7294847506       17.7207204173       14.7967275923
  H        28.9572879949       21.7137371567        9.8141064489
  H        29.0765335788       21.7851229432        6.5797814780
  H        32.0799791572       18.5100131416       11.0514393067
  H        27.3470972554       19.0766824961        8.0801058140
  H        14.8549321630       19.6776683078       12.1176742841
  H        17.0203730685       19.7621388901       13.3464860636
  H        18.3414872498       16.2493202373       11.2452692041
  H        16.1718270703       16.1815970762       10.0145632764
  H        16.9525087074       17.7837515866       14.8319054398
  H        46.0849009005       15.4315115267       12.0571151104
  H        43.9568478469       15.3633463567       13.3568617712
  H        42.5376107532       18.7988968725       11.1919001089
  H        44.6662862100       18.8419573454        9.8814886385
  H        44.0116964766       17.3132018930       14.8138065962
  H        20.3304411657       18.0157849468       11.4074423492
  H        46.0401766567       15.3914877326        4.0272177264
  H        43.9118483313       15.3347563832        2.7284845252
  H        42.5285475781       18.8068691317        4.8573730338
  H        44.6626090733       18.8487383776        6.1583316494
  H        44.0043976381       17.3083488493        1.2631618019
  H        46.1995526099       26.6827495768        4.6233887922
  H        52.7407953073       21.0626329513        8.1947533602
  H        14.8689833443       19.6988641163        3.9069410088
  H        17.0639810204       19.8148703531        2.7283507743
  H        18.3716697980       16.2978187618        4.8302075618
  H        16.1778945394       16.2064266546        6.0197044756
  H        16.9683867674       17.8028225257        1.2773547326
  H        52.3215068449       21.6726203322        6.2944243701
  H        52.0122678335       21.7009947830        9.4959441398
  H        49.0686677023       18.6079524270        5.2042072102
  H        13.2479038624       19.0177007023        7.9764597163
  H        29.8852634722       12.5820674902       12.3544440373
  H        28.8271746224       10.6530795763       13.5276929085
  H        25.3120985221       11.0886941997       11.0844553350
  H        26.3951062572       12.9965731095        9.8906538883
  H        27.0732715265       11.7281009113       14.7975625474
  H        30.9234499556       22.6865912597       12.1701477285
  H        31.9399287751       24.5915237387       13.4013235685
  H        35.5332231101       24.1757211587       11.0719427547
  H        34.4942662544       22.2838023696        9.8235293592
  H        33.6437302229       23.5551522080       14.7592486907
  H        25.7346330471        8.5862138219       11.4094650782
  H        30.8819350701       22.6004681825        3.7933111063
  H        31.8947147544       24.4983069134        2.5500735820
  H        35.4489773510       24.1747037538        4.9541321075
  H        34.4172746219       22.2871852295        6.2080135175
  H        33.6167300836       23.5402688520        1.2016776892
  H        40.6021939616       17.1085605346        4.6503810834
  H        32.5127454214       14.1563036552        8.2565475686
  H        29.8173387108       12.6349379070        3.8405034666
  H        28.7898870677       10.7319380729        2.5945131699
  H        25.2047184571       11.1423768338        4.9376378245
  H        26.2560776218       13.0249740546        6.1976783779
  H        27.0562175993       11.7497156910        1.2411602373
  H        33.2886083987       14.1609279764        6.4293289745
  H        33.4098609360       14.3678636785        9.6138311736
  H        32.0777617236       18.5212487891        5.1205123534
  H        30.2077345113       14.1879872514        8.0780998742
  H        16.1176712496        2.9629690005       12.1290106782
  H        14.9523886380        4.8200622765       13.3217103511
  H        17.3671453795        7.6855010470       11.2111775747
  H        18.5159457693        5.8178956124       10.0114760605
  H        16.7535190427        5.7395896098       14.7713423043
  H        44.8286583580       32.1403528931       11.9761140971
  H        45.9381984706       30.3417124310       13.3056163479
  H        43.6816417248       27.3782609045       11.1535210644
  H        42.5984993020       29.1900021069        9.8109892146
  H        44.2311234289       29.4370123761       14.7689386659
  H        14.8505956532        8.5455378809       11.3631724118
  H        44.9007252345       32.2340605632        3.9328445899
  H        46.0258330003       30.4131803817        2.6533380670
  H        43.7624889403       27.4841307413        4.8442029102
  H        42.6444034654       29.3177741877        6.1231638321
  H        44.2692663045       29.4707173101        1.2182871143
  H        34.9887022372       26.6179692519        4.6392291243
  H        36.6054126403       35.1330897862        8.1812704006
  H        16.1432804450        3.0130630252        3.9047478388
  H        14.9737922155        4.8565004027        2.6889665762
  H        17.3977693138        7.7471319350        4.7539340090
  H        18.5446388466        5.8930789023        5.9816095902
  H        16.7649430187        5.7557246781        1.2191857185
  H        36.2797038321       34.4809223718        6.2732018586
  H        36.3822290072       34.2084038705        9.5007326213
  H        40.5781419901       33.2010757513        5.1546867856
  H        17.4718765527        1.9455756972        7.9741572971
  H        32.2780274367       16.1566690604        3.7660603439
  H        30.9299289844       15.4754972546       12.5075183328
  H        28.2260980434       17.9978710941       14.2426864985
  H        29.3823331204       14.6735765805       14.4301855295
  H        32.3033405641       17.3043383854        0.9151191695
  H        18.8541696928        0.8689909968       12.3350549463
  H        40.5282180360       35.2288717978        3.9522056544
  H        42.3238416003       34.4187643583        3.5907512415
  H        22.0874805636        0.6926945006       12.3507482286
  H        11.5970038424       18.7128171148       12.3827915478
  H        52.2648622790       18.4308870963        3.6770964704
  H        49.2550779478       16.4767598439        3.5848313689
  H        10.1500143509       15.7980297178       12.2928031814
  H        50.8499647669       17.6922488608        3.9543001859
  H        10.0460368724       17.3942635462       12.0520663290
  H        20.2157565034        0.0019645065       12.0418398303
  H        39.1838291415       36.1245872405        3.6871142355
 Ni        30.4825813755       16.7626016179        2.3316788462
 Ni        31.0309493590       15.8131395848       -0.3317157570
 Ni        29.6308592879       17.5964674994        0.1646169214
 Ni        30.3121399457       17.2547517389       13.5728282242
  O        10.6501352440       14.3651642857        5.4860276227
  O        12.6133981126       14.6579098007        6.5840539187
  O        49.1479378649       16.8459433849        7.9898202979
  O        50.3504753817       20.9350198832        5.6479607291
  O        48.3486719605       20.5931736393        6.6659531004
  O        11.0524660019       17.0532014620        6.5010617441
  O        50.3213464088       20.8814956787       10.4067221990
  O        48.3468907524       20.5866790237        9.3271756375
  O        49.5441655766       18.2483105584       10.0681218681
  O        12.3601672590       18.6243365732        7.9997183672
  O        48.6932378688       14.1486809897        6.7512844174
  O         8.2098946587       14.2105232300        9.3225814736
  O        10.7355370806       14.5069269966       10.6642709338
  O        12.5720384633       14.5832553193        9.3284039769
  O        22.8448524283        2.0442247578        5.4869560499
  O        21.6053558178        3.5922086675        6.5901018872
  O        42.0573491329       34.1367721038        7.9790402676
  O        37.9809331621       33.1323179966        5.5707275155
  O        39.2159767186       31.5729812646        6.6639758119
  O        20.3082055093        1.0392372380        6.5020782648
  O        38.0223476332       33.1814215961       10.4173261392
  O        39.2163774184       31.5813863750        9.3295469886
  O        40.6520574953       33.7689367560       10.0600796800
  O        18.2567786482        1.3746801049        7.9968195759
  O        44.6221341052       35.1005808948        6.7587993264
  O        24.2053090896        0.0000269925        9.3207723005
  O        22.7534501867        2.0582852844       10.5843684247
  O        21.6251868493        3.5968269570        9.3443450279
  O        27.6301547947       18.6868180499        5.4089380198
  O        26.7378847352       17.0026079594        6.6571262806
  O        30.6210206980       19.3532063914        8.0782875209
  O        33.5838886501       16.2814893521        5.6627994781
  O        34.2665213465       18.1714450420        6.7332904218
  O        29.5660190169       17.0642509004        6.5782920291
  O        33.5530555217       16.3413075994       10.4154057763
  O        34.2856729305       18.2461261658        9.4079123090
  O        31.5991175998       18.2600495629       10.2435229009
  O        30.3141939356       15.1537996133        8.0835783866
  O        28.5537314803       21.0334213407        6.9081789438
  O        28.5122687899       20.9518239873        9.4065643546
  O        27.5998596674       18.6184805512       10.7541473180
  O        26.7295998233       16.9940471197        9.4213191558
  O        13.1509305441       18.6927978620       10.5882045755
  O        13.9236832046       16.9174181836        9.4078634694
  O        50.5965067319       19.3499824701        8.0207276686
  O        47.6823609755       16.3271975165       10.4173803734
  O        46.9504103392       18.1756524084        9.3254147748
  O        11.0708204530       17.0149093485        9.4893353258
  O        47.6754369259       16.3360032767        5.6525631534
  O        46.9265161822       18.2359455445        6.6639454164
  O        49.5693272738       18.3175556643        5.9826234804
  O        10.3188435320       15.1002790121        7.9970756178
  O        52.6707676263       21.0277751686        9.2418729090
  O        12.1468485596       20.8909513912        6.6731977764
  O        13.1099535300       18.6139660603        5.3248380963
  O        13.9617330785       16.9888897249        6.6616061111
  O        29.9920388359       14.4283441263       10.6631558741
  O        28.0714049117       14.6604892131        9.4847857441
  O        32.0742028290       16.8746297249        8.0777136301
  O        30.8794865739       20.8016459345       10.5796661055
  O        32.7840357802       20.5923162478        9.3458185524
  O        29.5599183320       17.0769942304        9.5675696007
  O        30.8325782970       20.7376743130        5.4950898695
  O        32.7830799124       20.5795678814        6.6648403463
  O        31.6010631398       18.2432586890        5.9195530462
  O        28.2363481135       18.6855542069        8.0783709093
  O        32.4910815600       14.2132822137        9.3300314623
  O        32.4036504427       14.2157100370        6.8258989022
  O        29.8966637047       14.4361558723        5.4985031951
  O        28.0035085046       14.6482406342        6.7392434679
  O        17.8890709488        1.9662309364       10.6627778177
  O        18.9561888441        3.5269605244        9.4080163682
  O        39.1682305464       34.1379040023        7.9973151460
  O        43.2801987429       33.0588813698       10.3316394722
  O        42.0342552883       31.5064386538        9.2415769088
  O        20.3172940595        1.0361781031        9.4804899031
  O        43.2761102430       33.1825534001        5.5749097243
  O        42.0051691322       31.5840878285        6.5830361456
  O        40.5788815314       33.7747010020        5.9361592142
  O        22.3672147712        1.3845652233        7.9980762772
  O        36.6729570775       35.0993539753        9.2337228094
  O        16.4457372228        0.0635905961        6.6680221631
  O        17.9365012187        2.0432517178        5.3263725672
  O        18.9190923949        3.5930383036        6.6660481979
  O        31.3559450630       16.1933301978        4.0790755365
  O        31.1795715193       16.3331747553       12.0765457179
  O        31.9764510365       16.4157644042        1.1596870360
  O        30.2951472002       14.9510404030       14.2383529581
  O        29.1101190148       18.3220326247       14.4977010350
  O        39.4568571963       35.2436994940        4.0020514523
  O        19.1420106469        0.0044375292       11.9905118778
  O        41.9695291178       35.1727092169        4.0873252880
  O        21.6912836885       -0.0693064163       11.8958288153
  O        51.3652109614       18.6141673060        4.0055654138
  O        10.7514311114       18.7471194638       11.9048470110
  O        50.0796656339       16.4128666353        4.0919060363
  O         9.5243739132       16.4830462684       11.9911521020
 Zr         9.2968525871       16.0524845675        6.1825919573
 Zr        49.8364414146       16.0065564989        9.7463723133
 Zr        22.0730881584        0.0299035432        6.1892094895
 Zr        42.4607923574       35.1532859723        9.8008153251
 Zr        29.5897850327       19.0826360470        6.3556954722
 Zr        29.5646506371       19.1424520663        9.8274873050
 Zr        11.0384681983       19.0513061158        9.8278736416
 Zr        11.0440425830       19.1542478858        6.2512553274
 Zr        31.3294745770       16.0658007561        9.9475615039
 Zr        31.3699315508       15.9720321563        6.2274690828
 Zr        18.6011484266       -0.0032818467        9.7641874408
 Zr        18.5065273081       -0.0093511558        6.2133721916
 Zr        12.3038939625       16.3236557321        7.9901135942
 Zr        48.6159903912       18.8331133028        8.0105633237
 Zr        20.3157764530        2.4732425422        7.9910693701
 Zr        40.6414729079       32.6855567933        7.9783298023
 Zr        28.3378596610       16.3210948535        8.0793803648
 Zr        32.6364184610       18.7776985981        8.0554525854
  H        29.1312661465       17.1494610602        1.5639056590
