     576
 i =      162, E =     -4780.0655526221
  C        11.8588446508       14.0534812182        5.7415468470
  C        12.4563329790       12.8906122868        5.0232532732
  C        11.7046233610       12.1716594217        4.0816184363
  C        12.2810114220       11.1094720078        3.3892726321
  C        13.6215973877       10.7397040549        3.6170100697
  C        14.3547979474       11.4433171919        4.5904246849
  C        13.7818958391       12.5082835111        5.2819285010
  C        14.2611091807        9.6490212390        2.8436328587
  C        14.2563640687        9.6569550786        1.4219364233
  C        13.7432266736       10.7590822364        0.6680215800
  C        49.1268826907       21.2332217230        5.8796964458
  C        48.5501292804       22.4012147515        5.1526527281
  C        49.3000835640       23.0683146631        4.1714528094
  C        48.7331508019       24.1074612312        3.4382535201
  C        47.4027162798       24.5093296790        3.6670774945
  C        46.6719129542       23.8607201676        4.6808725101
  C        47.2343297033       22.8158078190        5.4102303758
  C        46.7723954880       25.5869553081        2.8697837601
  C        46.7612350999       25.5572632468        1.4480188345
  C        47.2611624216       24.4421656229        0.7045191078
  C        14.8603064707        8.5706421311        0.7086492852
  C        14.8919498099        8.5970912339        3.5202520533
  C        49.1133142934       21.2034940798       10.1453443491
  C        48.5279657366       22.3648896901       10.8724995996
  C        49.2670957492       23.0253829380       11.8656306938
  C        48.6907450298       24.0599271490       12.5970916338
  C        47.3604545718       24.4569409132       12.3586270368
  C        46.6402033359       23.8122887203       11.3348325432
  C        47.2137438459       22.7764000525       10.6030342296
  C        46.7219268739       25.5318453614       13.1496620681
  C        46.7334808311       25.5281061578       14.5713730415
  C        47.2488844404       24.4288708453       15.3277555537
  C        40.6326176981       17.1098661946       15.3217172443
  C        40.6491098701       17.1504681282       12.5126783712
  C        11.8830230606       14.0864485735       10.2854731192
  C        12.4723576459       12.9107525777       10.9897272816
  C        11.7148968646       12.1776444920       11.9159559447
  C        12.2814940880       11.0952117456       12.5843694083
  C        13.6203276382       10.7215055579       12.3525426349
  C        14.3582572079       11.4369825514       11.3916321109
  C        13.7928161075       12.5181347987       10.7189331521
  C        14.2539137285        9.6247003156       13.1228590987
  C        14.2525570221        9.6446261179       14.5447003638
  C        13.7426919653       10.7535855008       15.2917678840
  C        22.5114720493        3.2443911439        5.7529619541
  C        23.2249951856        4.3496423244        5.0531293759
  C        24.2189221786        4.0700455124        4.1036413272
  C        24.8445247662        5.1100602629        3.4211740848
  C        24.4919758522        6.4516390577        3.6683862255
  C        23.5264025827        6.7227172865        4.6548557543
  C        22.8959642963        5.6845747028        5.3355543091
  C        25.0955768546        7.5589479408        2.8926108849
  C        25.0619771347        7.5550613477        1.4713231363
  C        24.3577373813        6.5569319297        0.7256662784
  C        38.3021291684       31.9289080588        5.8485826556
  C        37.5717203694       30.8391470374        5.1381875022
  C        36.6082257954       31.1431670165        4.1641736316
  C        35.9899629948       30.1235327120        3.4453513005
  C        36.3202006837       28.7740850631        3.6784432175
  C        37.2545270964       28.4773321235        4.6886710459
  C        37.8765500831       29.4957296725        5.4066620009
  C        35.7181739883       27.6824744842        2.8792400197
  C        35.7497303509       27.6994348012        1.4576536667
  C        36.4510545880       28.7057782829        0.7214741034
  C        25.6821079133        8.6265989718        0.7515675080
  C        25.6973756328        8.6310040310        3.5632214762
  C        38.3294179193       31.9635616710       10.1552236616
  C        37.6077544764       30.8909441536       10.8965780915
  C        36.6750840416       31.2004609893       11.8980278372
  C        36.0636721196       30.1820521964       12.6261516040
  C        36.3717604588       28.8301274034       12.3758004740
  C        37.2825094620       28.5305721119       11.3444205144
  C        37.8956845653       29.5453746374       10.6172690150
  C        35.7635160724       27.7311385530       13.1586894943
  C        35.7727977058       27.7246219944       14.5804790726
  C        36.4619507546       28.7179629392       15.3446993648
  C        46.1353861904       26.6206940072       15.2815149918
  C        46.0880616680       26.5802724761       12.4736172637
  C        22.4600556658        3.2561137708       10.2577173497
  C        23.1515731647        4.3659011277       10.9806553176
  C        24.1512689592        4.0824024811       11.9247457769
  C        24.7758953221        5.1144392829       12.6208288524
  C        24.4210698861        6.4595997914       12.3953421941
  C        23.4448771729        6.7362875016       11.4194556867
  C        22.8153832248        5.7045613735       10.7240841537
  C        25.0481856538        7.5594901518       13.1697186665
  C        25.0381980433        7.5545494986       14.5924746862
  C        24.3447055116        6.5575678706       15.3488006313
  C        26.6178586250       17.8594575903        5.7790703595
  C        25.3103438014       17.9080527054        5.0564055121
  C        25.0476472068       18.9080016138        4.1065553995
  C        23.8343243408       18.9276293681        3.4212818289
  C        22.8468805018       17.9514999408        3.6650407498
  C        23.1050424608       16.9748685000        4.6454282631
  C        24.3205390022       16.9493455421        5.3275454566
  C        21.5741680923       17.9366506841        2.9002803348
  C        21.5755747366       17.9141290173        1.4779303651
  C        22.7819990612       17.7897184385        0.7192092155
  C        34.4410085824       17.1888430598        5.9190518172
  C        35.7344773835       17.1371965119        5.1765646916
  C        35.9461639419       16.1593494806        4.1921326736
  C        37.1259360924       16.1472692890        3.4539630892
  C        38.1271925210       17.1105698406        3.6826863326
  C        37.9197203135       18.0686854270        4.6930256654
  C        36.7363053860       18.0868318893        5.4274680663
  C        39.3811247005       17.1173350675        2.8964025685
  C        39.3758928525       17.1259234841        1.4750392540
  C        38.1677308086       17.2410272173        0.7180947892
  C        20.3296963449       17.9317657886        0.7681603479
  C        20.3490139924       17.9391840750        3.5815628422
  C        34.4694315345       17.2442203529       10.1816243992
  C        35.7689468197       17.1713297276       10.9124111276
  C        35.9850727327       16.1793249061       11.8806241906
  C        37.1721164478       16.1554154078       12.6074028430
  C        38.1707963054       17.1230071726       12.3849566594
  C        37.9599132715       18.0922841892       11.3868961019
  C        36.7710851975       18.1208386224       10.6627391249
  C        39.4188879518       17.1344278099       13.1783951708
  C        39.3954324544       17.1351981747       14.5991555110
  C        38.1772389251       17.2439547383       15.3413988261
  C        35.1457519570       26.6429468016       15.2829845815
  C        35.1757027438       26.6605140650       12.4737492016
  C        26.5742687143       17.8254215829       10.3247495107
  C        25.2611408718       17.8639021586       11.0369712658
  C        24.9963290982       18.8694842409       11.9790693480
  C        23.7781719559       18.8946828600       12.6527371308
  C        22.7955442795       17.9147160113       12.4073420470
  C        23.0558762687       16.9326275914       11.4345573530
  C        24.2748325227       16.9050307253       10.7594885123
  C        21.5303853070       17.8983830330       13.1780135345
  C        21.5529002169       17.8926641245       14.5995085303
  C        22.7706449802       17.7788095571       15.3428686098
  C        14.0472774880       17.8287496504       10.2889498820
  C        15.3520482626       17.8853442026       11.0139130248
  C        15.6105757319       18.8893690318       11.9602339021
  C        16.8199860149       18.9095017930       12.6525605516
  C        17.8052284631       17.9281259903       12.4213998157
  C        17.5514019396       16.9482281308       11.4430301990
  C        16.3415275396       16.9235541430       10.7521635586
  C        19.0740567490       17.9100439803       13.1911553071
  C        19.0715402093       17.9096874806       14.6137175556
  C        17.8636923134       17.8140918461       15.3740854750
  C        46.8058276540       17.2186348796       10.1588787797
  C        45.5165646185       17.1566693529       10.9054891090
  C        45.3110414352       16.1770730319       11.8891912886
  C        44.1302186719       16.1585297486       12.6265040087
  C        43.1255893795       17.1198517417       12.4018810603
  C        43.3284155844       18.0793038338       11.3916182507
  C        44.5098322621       18.1014912156       10.6550888281
  C        41.8732413839       17.1301037965       13.1911061700
  C        41.8792548807       17.1242922843       14.6129342790
  C        43.0883474812       17.2163812754       15.3717766420
  C        20.3176607179       17.9204146985       15.3231831090
  C        20.2989780279       17.8872935605       12.5100411033
  C        46.7862617441       17.2306746634        5.8902329107
  C        45.4830016097       17.1234022946        5.1760990861
  C        45.2650015256       16.1231042286        4.2168371320
  C        44.0773121225       16.0955415002        3.4904693345
  C        43.0793407708       17.0651532268        3.7072737417
  C        43.2873291453       18.0347758084        4.7057177301
  C        44.4761835889       18.0688120103        5.4270275763
  C        41.8341412363       17.0871895474        2.9100318791
  C        41.8594389499       17.1011405876        1.4893249435
  C        43.0790055332       17.2031928050        0.7484699904
  C        46.1531436555       26.6371086586        0.7262749561
  C        46.1625474314       26.6561459302        3.5359038200
  C        14.0450883667       17.8317788994        5.7087389471
  C        15.3655442307       17.9065165037        5.0180506460
  C        15.6383690351       18.9227126978        4.0901578131
  C        16.8670811174       18.9606800375        3.4350066867
  C        17.8501371694       17.9814007738        3.6820816240
  C        17.5842263789       16.9940444919        4.6481595765
  C        16.3575414948       16.9556174412        5.3067717023
  C        19.1172517654       17.9569519286        2.9133964444
  C        19.0940190588       17.9327931662        1.4919645194
  C        17.8747225315       17.8244343254        0.7503153543
  C        28.8076983911       14.0941132512       10.3953505529
  C        28.1906815776       12.9233077633       11.0845113912
  C        28.9096708830       12.1818091339       12.0335611478
  C        28.3064765377       11.1082431911       12.6840287739
  C        26.9707231583       10.7520985920       12.4084554686
  C        26.2733874553       11.4743385494       11.4236426128
  C        26.8739611250       12.5485619299       10.7724101180
  C        26.2984464088        9.6731512913       13.1675840852
  C        26.2827517579        9.7010572987       14.5883626965
  C        26.7841377426       10.8149439405       15.3337503194
  C        32.1808377530       21.2400285966       10.1388213448
  C        32.7781442995       22.4047744895       10.8589627278
  C        32.0298755227       23.0843850292       11.8323510130
  C        32.6009164032       24.1246961080       12.5590931174
  C        33.9354662856       24.5127792228       12.3325490285
  C        34.6665198448       23.8517441066       11.3277461008
  C        34.0976541009       22.8059845262       10.6030129107
  C        34.5638469263       25.5887706936       13.1320625319
  C        34.5577940072       25.5584948162       14.5533098746
  C        34.0550556567       24.4394345556       15.2888407170
  C        25.6741363614        8.6227418190       15.3069621606
  C        25.6642611057        8.6213843705       12.4936710018
  C        32.1087632985       21.2226175023        5.8796152096
  C        32.7061363562       22.3649400105        5.1246717661
  C        31.9811372465       22.9972762590        4.1023202853
  C        32.5590368461       24.0294041235        3.3660190557
  C        33.8753695862       24.4568550918        3.6316245265
  C        34.5842327092       23.8308249068        4.6752621043
  C        34.0115682211       22.7947006661        5.4083808748
  C        34.5115924952       25.5428704010        2.8514945747
  C        34.5308511917       25.5348151378        1.4297424665
  C        34.0424580227       24.4288240054        0.6653242882
  C        40.6221767610       17.1018476928        0.7660467994
  C        40.6040236125       17.1149050866        3.5758141325
  C        28.7407931640       14.0665347754        5.8172133945
  C        28.1316996903       12.9199866304        5.0800334338
  C        28.8576960159       12.2412621609        4.0896524070
  C        28.2756117184       11.1853919362        3.3924854608
  C        26.9512233265       10.7836040379        3.6587192426
  C        26.2424475581       11.4512540414        4.6752939918
  C        26.8229337704       12.5067124045        5.3752614992
  C        26.3058074365        9.6959223286        2.8859928465
  C        26.2880597487        9.7131467708        1.4642223815
  C        26.7845900295       10.8222479731        0.7096462152
  C        18.1353960992        3.1811476080       10.3171849570
  C        17.4061840011        4.2783827117       11.0158435770
  C        16.3902479280        4.0000057928       11.9431249617
  C        15.7425355810        5.0400022823       12.6066092979
  C        16.0947514153        6.3836908223       12.3671541657
  C        17.0843893322        6.6532327648       11.4036547082
  C        17.7334805530        5.6158775806       10.7386132913
  C        15.4703708479        7.4913937688       13.1301432692
  C        15.4855678513        7.4906503312       14.5518515651
  C        16.1871167040        6.4970311649       15.3050202364
  C        42.9458387695       31.8596148359       10.0729004275
  C        43.6463144591       30.7718934646       10.8168142224
  C        44.5916136406       31.0932493029       11.8030753069
  C        45.1973420181       30.0877179239       12.5507597484
  C        44.8711256739       28.7346295924       12.3357268184
  C        43.9455656561       28.4202518836       11.3222688780
  C        43.3367322844       29.4253928548       10.5742252717
  C        45.4886942460       27.6553054534       13.1388974018
  C        45.4926839754       27.6808232077       14.5605942990
  C        44.8055432931       28.6888271409       15.3072273764
  C        14.8565689448        8.5631095567       15.2642244975
  C        14.8751379569        8.5631807722       12.4515502092
  C        42.9467263160       31.9616651361        5.8091579354
  C        43.6917077679       30.8854938220        5.0954007460
  C        44.6562894928       31.1914056378        4.1231081363
  C        45.2777417242       30.1718187105        3.4053000049
  C        44.9540898240       28.8214974070        3.6430944328
  C        44.0207910238       28.5238155330        4.6540566144
  C        43.3926226836       29.5406007201        5.3662928922
  C        45.5630978709       27.7240641251        2.8578708410
  C        45.5332150317       27.7172830911        1.4365784385
  C        44.8268064622       28.7074535530        0.6836240073
  C        35.1329907617       26.6308248538        0.7278436262
  C        35.1157797207       26.6041416628        3.5371522235
  C        18.1487239683        3.2470643415        5.7064080392
  C        17.4300576118        4.3438876237        4.9972313320
  C        16.4146081492        4.0526350600        4.0739240818
  C        15.7663225692        5.0832818706        3.3985390469
  C        16.1212300534        6.4284812551        3.6211010515
  C        17.1129416919        6.7118540700        4.5780071023
  C        17.7606020452        5.6829261238        5.2577628761
  C        15.4907401767        7.5241628342        2.8486285219
  C        15.4965578586        7.5075412670        1.4275003370
  C        16.1933385848        6.5058340249        0.6808307427
  H        10.6724853798       12.4657462951        3.9046225108
  H        11.6947267023       10.5509258429        2.6627852919
  H        15.3918551898       11.1687917344        4.7721105445
  H        14.3514155746       13.0715636042        6.0172741851
  H        13.3762644517       11.6312225422        1.2013365279
  H        50.3227283909       22.7481543613        3.9865615169
  H        49.3195813655       24.6225900226        2.6805420333
  H        45.6425482123       24.1617655253        4.8643004054
  H        46.6634749462       22.2907920134        6.1725919553
  H        47.6297905671       23.5758219270        1.2461908265
  H        14.8723733870        8.5883887585        4.6085600278
  H        50.2870681649       22.7024024155       12.0607086693
  H        49.2690784300       24.5752738347       13.3607073165
  H        45.6109445778       24.1098328152       11.1454830359
  H        46.6530804542       22.2544651415        9.8312108598
  H        47.6077627658       23.5517896230       14.7968651051
  H        40.6543382276       17.1244989906       11.4246808117
  H        48.6872544719       14.0948384957        7.8000594229
  H        10.6814236323       12.4666802119       12.0933674274
  H        11.6897342336       10.5247514384       13.2970376489
  H        15.3936797829       11.1590792872       11.2056421276
  H        14.3651798527       13.0875025302        9.9904140227
  H        13.3759401803       11.6222411719       14.7531507768
  H        47.9303163535       14.2181561578        9.7108841799
  H        47.7801082043       14.3736860127        6.4954789246
  H        49.0841288078       18.5525560020       10.8675719997
  H        10.4164442415       14.1342754696        7.9987133999
  H        24.4786137764        3.0315229245        3.9108984471
  H        25.6152808830        4.8933041175        2.6847402760
  H        23.2472697763        7.7557118570        4.8517927937
  H        22.1281343967        5.8844114167        6.0789168456
  H        23.7974658911        5.7996914897        1.2663019737
  H        36.3684455447       32.1863784789        3.9723910716
  H        35.2427170852       30.3637184622        2.6921816079
  H        37.5181780225       27.4383810567        4.8756145921
  H        38.6230713297       29.2738760326        6.1656311491
  H        37.0122704440       29.4577211190        1.2685079936
  H        25.7387987451        8.6100263364        4.6507411544
  H        36.4507182376       32.2447882111       12.1030000517
  H        35.3343672786       30.4262023363       13.3953653937
  H        37.5315564403       27.4903299714       11.1455315348
  H        38.6215575924       29.3207231502        9.8396224719
  H        37.0327921570       29.4788406939       14.8202587795
  H        46.1096986636       26.5878259962       11.3855855156
  H        44.6683880539       35.1163185033        7.8139338647
  H        24.4296581034        3.0447747912       12.0945130920
  H        25.5548042275        4.8877982151       13.3457265619
  H        23.1597364102        7.7702345159       11.2360489136
  H        22.0457597587        5.9153129667        9.9851568314
  H        23.7737539628        5.8015420557       14.8176342043
  H        44.9542475183       34.3907613594        9.6954273566
  H        44.9022436681       34.2069540359        6.4906554770
  H        40.6663311462       33.2093324872       10.8530504054
  H        23.1502881356        1.9583071020        8.0052133225
  H        25.8046803581       19.6665821472        3.9208614612
  H        23.6359714855       19.7085272124        2.6901963492
  H        22.3542054266       16.2123667904        4.8424916793
  H        24.5314413722       16.1813593274        6.0681221888
  H        23.7225347025       17.6722623696        1.2495990363
  H        35.1711427508       15.4178673678        4.0143266925
  H        37.2884952299       15.3820762335        2.6980275516
  H        38.6859737572       18.8198690962        4.8733652862
  H        36.5586044810       18.8402179019        6.1914797383
  H        37.2276104086       17.3567494065        1.2497659521
  H        20.3548430733       17.9792591621        4.6694199274
  H        35.2056601536       15.4416656275       12.0566560961
  H        37.3398830027       15.3822294529       13.3540346016
  H        38.7254845207       18.8454648500       11.2121770586
  H        36.5865894537       18.8838944650        9.9101847615
  H        37.2442980089       17.3612244429       14.7978306266
  H        35.1479676737       26.6882271369       11.3861016291
  H        28.4982767396       21.0898282677        7.8810585570
  H        25.7567912497       19.6255461222       12.1620085953
  H        23.5718903384       19.6795226969       13.3772926917
  H        22.3057173853       16.1688308452       11.2399070765
  H        24.4914264291       16.1363804168       10.0213888079
  H        23.7026396554       17.6525567545       14.8001634901
  H        28.9949550390       21.7288521454        9.7487735764
  H        29.1804901846       21.7288061319        6.5579457544
  H        32.0804909080       18.5732159283       10.9166007290
  H        27.3955622226       19.0663673052        8.0726650590
  H        14.8534781448       19.6499613306       12.1376360391
  H        17.0164582433       19.6945730219       13.3796162212
  H        18.3013567510       16.1825066580       11.2553294380
  H        16.1345598472       16.1536540049       10.0126327019
  H        16.9214005973       17.6994507103       14.8462380762
  H        46.0937900365       15.4439347970       12.0691007125
  H        43.9708957259       15.3910186831       13.3807044965
  H        42.5606421784       18.8295717280       11.2143299431
  H        44.6833150906       18.8563331566        9.8917179553
  H        44.0300669371       17.3306424404       14.8425511991
  H        20.2943736605       17.9147073112       11.4218176475
  H        46.0421070581       15.3826199307        4.0417373925
  H        43.9100447940       15.3199572876        2.7462517373
  H        42.5208602456       18.7872938381        4.8788344521
  H        44.6595725207       18.8363042072        6.1749168724
  H        44.0135750709       17.3061741195        1.2922507710
  H        46.1996210866       26.6828308058        4.6233414599
  H        52.7412464332       21.0627009894        8.1947219175
  H        14.8777708535       19.6765987039        3.8993845105
  H        17.0783106713       19.7517446985        2.7186950150
  H        18.3350463111       16.2318995505        4.8463889268
  H        16.1365716879       16.1806671134        6.0367024054
  H        16.9406966804       17.7174791281        1.2936688071
  H        52.3227716872       21.6734398235        6.2942214770
  H        52.0135760676       21.7022774011        9.4957619659
  H        49.0678663937       18.6078537320        5.2041081993
  H        13.2477282415       19.0161388630        7.9774136849
  H        29.9395269127       12.4605972322       12.2456381571
  H        28.8651734216       10.5322824325       13.4185971222
  H        25.2412165795       11.2090798214       11.2041212886
  H        26.3337352243       13.1278368312       10.0276553662
  H        27.1454582730       11.6845533689       14.7933722739
  H        31.0045664676       22.7712927794       12.0140185748
  H        32.0160518549       24.6512257714       13.3101625550
  H        35.6993690151       24.1429791678       11.1476403961
  H        34.6663328517       22.2699600217        9.8465594524
  H        33.7026439879       23.5703753440       14.7406021911
  H        25.6970531226        8.6008211363       11.4057672422
  H        30.9665410412       22.6617991336        3.8973779938
  H        31.9874928015       24.5249849097        2.5842793998
  H        35.6040965361       24.1475215285        4.8840505652
  H        34.5630664376       22.2921843173        6.1998144134
  H        33.6806379956       23.5504129055        1.1913116249
  H        40.5972901434       17.0801806905        4.6635617283
  H        32.5064967964       14.1434375952        8.2455167109
  H        29.8784831467       12.5538957092        3.8825941610
  H        28.8471953627       10.6553572376        2.6338248950
  H        25.2174844323       11.1540937272        4.8875854185
  H        26.2726217487       13.0379851876        6.1481812951
  H        27.1462025253       11.6975044685        1.2414126741
  H        33.3079633877       14.2311036329        6.4661740077
  H        33.4081769355       14.4125929305        9.5949663982
  H        32.1623458161       18.4949541745        5.1822538083
  H        30.1887319415       14.1481470313        8.0742462643
  H        16.1180028181        2.9635118668       12.1293571330
  H        14.9528683334        4.8207019475       13.3220618091
  H        17.3670920694        7.6860807716       11.2107639621
  H        18.5157947293        5.8184922035       10.0110416606
  H        16.7537460047        5.7397462136       14.7715154749
  H        44.8277272626       32.1403565548       11.9773683641
  H        45.9370994924       30.3415216637       13.3067985024
  H        43.6831577153       27.3781404519       11.1519249123
  H        42.6003462110       29.1900701560        9.8093184995
  H        44.2302579287       29.4366430493       14.7689073530
  H        14.8515131063        8.5464589632       11.3633200084
  H        44.8996909871       32.2341056841        3.9315416954
  H        46.0246013780       30.4130771047        2.6520134916
  H        43.7640968432       27.4840548544        4.8458480279
  H        42.6462655769       29.3178750795        6.1249150090
  H        44.2683753324       29.4704007400        1.2182123433
  H        35.0707119182       26.6164312793        4.6245593107
  H        36.6051285360       35.1341406063        8.1806326543
  H        16.1433507065        3.0130721164        3.9043739499
  H        14.9737903300        4.8565040156        2.6886636257
  H        17.3967354597        7.7472822182        4.7546580142
  H        18.5438057063        5.8933440730        5.9821869477
  H        16.7647985003        5.7556267986        1.2192822067
  H        36.2784677033       34.4826660409        6.2729360167
  H        36.3808788483       34.2092937712        9.4994276485
  H        40.5804969138       33.2028633697        5.1531466481
  H        17.4707623898        1.9476530786        7.9740564811
  H        29.1099656701       19.3657759992       12.4458750568
  H        28.9400237549       18.9025480693        3.6790946044
  H        32.1218532448       15.9545514867        3.6207989857
  H        31.4187332613       15.6904838025       12.5432556997
  H        27.8325855351       17.7168814259       13.9484656178
  H        29.4472810924       15.3322722126       14.2216413635
  H        32.3490486340       20.3080579166        2.2159161115
  H        32.7114373428       17.3444140174        1.0172114476
  H        30.2655561506       15.2330771938        2.3536201366
  H        33.3386549940       18.7123830113       14.1088122192
  H        18.8539964622        0.8692129546       12.3353907662
  H        40.5281528751       35.2289073810        3.9519266584
  H        42.3247579427       34.4195167517        3.5898756776
  H        22.0876534432        0.6918007297       12.3517931775
  H        11.5970169901       18.7128825096       12.3825581063
  H        52.2649486895       18.4311493015        3.6772901742
  H        49.2548295864       16.4769406135        3.5845758792
  H        10.1500375760       15.7982182168       12.2928700286
  H        50.8500768204       17.6925154268        3.9542054366
  H        10.0460560006       17.3944465008       12.0519550558
  H        20.2152204875        0.0022589098       12.0418988811
  H        39.1839288998       36.1245676785        3.6864333553
 Ni        30.9819671894       17.8882393173        2.8268844160
 Ni        30.8148057461       16.3793591816        0.0004182161
 Ni        29.2998875091       18.0821057750       -0.0809455513
 Ni        29.9708295904       17.3528045316       12.9172358556
  O        10.6500025922       14.3651013241        5.4858017831
  O        12.6132409703       14.6575083194        6.5838804664
  O        49.1479996264       16.8458613263        7.9897253768
  O        50.3502723810       20.9358746948        5.6480808316
  O        48.3485359988       20.5933348093        6.6658968763
  O        11.0518294413       17.0538435623        6.5007556596
  O        50.3210427541       20.8816606540       10.4068897709
  O        48.3466679533       20.5868371445        9.3272310261
  O        49.5436891033       18.2483166827       10.0683103184
  O        12.3591255550       18.6246446869        7.9998687965
  O        48.6933387262       14.1486010258        6.7513292856
  O         8.2099647634       14.2103700073        9.3224914800
  O        10.7354045711       14.5067709642       10.6643068318
  O        12.5718318103       14.5828415638        9.3285007805
  O        22.8444721181        2.0431911110        5.4871146829
  O        21.6051948362        3.5920919517        6.5898369174
  O        42.0582994987       34.1374229652        7.9788876683
  O        37.9815585082       33.1372345788        5.5721834513
  O        39.2176580123       31.5755456776        6.6661367438
  O        20.3082399259        1.0395162859        6.5020961794
  O        38.0252344807       33.1868489437       10.4148071439
  O        39.2196149595       31.5841463092        9.3259488421
  O        40.6526538113       33.7694863853       10.0600629498
  O        18.2553687864        1.3763672733        7.9967437249
  O        44.6221942279       35.1005208787        6.7587743764
  O        24.2053827005       -0.0000203732        9.3207702926
  O        22.7529246858        2.0581376766       10.5839583642
  O        21.6240772512        3.5956825603        9.3420171264
  O        27.4970948018       18.7490066778        5.4870511801
  O        26.7607522898       16.9369493701        6.6511777873
  O        30.6662097349       19.4115902246        8.0061043715
  O        33.5850847174       16.2721612507        5.6648373682
  O        34.2757650688       18.1626339998        6.7333845371
  O        29.5751362302       17.0558059503        6.5759779731
  O        33.6115761917       16.3247807266       10.4078413484
  O        34.3046091652       18.2439330422        9.4041156350
  O        31.6544285807       18.3172795292       10.0823561623
  O        30.2948352355       15.1127682892        8.0821746612
  O        28.5510637640       21.0358677843        6.8312786311
  O        28.5115363150       20.9606893521        9.4006021891
  O        27.4573585696       18.6791666638       10.6560879823
  O        26.6941905243       16.9280186431        9.4109738027
  O        13.1491973544       18.6927621209       10.5876038428
  O        13.9193890859       16.9161616871        9.4051446639
  O        50.5963783550       19.3502848989        8.0206264811
  O        47.6838020439       16.3267804730       10.4172233369
  O        46.9516816506       18.1758304760        9.3248293101
  O        11.0699244524       17.0155196029        9.4896385520
  O        47.6766674993       16.3353881540        5.6535437625
  O        46.9275369108       18.2357936927        6.6648114273
  O        49.5687616196       18.3176955000        5.9824177384
  O        10.3188037628       15.1000917975        7.9972686165
  O        52.6708309702       21.0278807267        9.2418575141
  O        12.1468486838       20.8912284169        6.6732716401
  O        13.1076965971       18.6137374191        5.3256717347
  O        13.9570578913       16.9870497525        6.6654088006
  O        29.9921379365       14.4434849878       10.7338822614
  O        28.0876238259       14.6535878634        9.4968629177
  O        32.0796326249       16.8536412620        8.0637183136
  O        30.9666058823       20.9547726771       10.4025766521
  O        32.9479362024       20.5996892550        9.3336697932
  O        29.5630531542       17.0710766155        9.5683641352
  O        30.8794230136       20.9488716193        5.6608573245
  O        32.8843303747       20.5839016326        6.6654427095
  O        31.6846972540       18.2526330052        5.9916652371
  O        28.2841175597       18.6753091076        8.0606342911
  O        32.4923273020       14.2120020030        9.3263966541
  O        32.4048822897       14.2148582095        6.8249770819
  O        29.9140337190       14.4386595214        5.4861660683
  O        28.0353317112       14.5889472751        6.7501445127
  O        17.8892489972        1.9666871525       10.6627440026
  O        18.9561448110        3.5271482014        9.4079369369
  O        39.1686761877       34.1390526114        7.9970071497
  O        43.2802120225       33.0589786527       10.3316857022
  O        42.0345305721       31.5065086081        9.2415581659
  O        20.3176898190        1.0369173743        9.4800281738
  O        43.2759415319       33.1826173914        5.5748267849
  O        42.0051614034       31.5841923382        6.5827884603
  O        40.5791403878       33.7749743099        5.9356860215
  O        22.3675422970        1.3845914296        7.9979766475
  O        36.6726206226       35.0999770157        9.2332464982
  O        16.4455461268        0.0643216775        6.6682099098
  O        17.9365100772        2.0433389659        5.3264922664
  O        18.9188677320        3.5931379961        6.6659830105
  O        29.8197207628       18.8995368903        4.0950759293
  O        29.8326861439       18.9650252147       11.9216312032
  O        31.3439592356       16.3385001493        4.0661899363
  O        31.3563790115       16.4875465794       11.9784040980
  O        32.0244312973       16.7869251566        1.4228047406
  O        29.8262735506       15.0212534563        1.4976882905
  O        30.2427893448       15.8938171511       14.2284575993
  O        32.6132872345       18.6875780299       14.7544711591
  O        31.6859561827       19.7104769837        1.8302210206
  O        28.6819092285       18.1748602003       14.0854975919
  O        39.4569069163       35.2438980766        4.0020027451
  O        19.1417179578        0.0047402226       11.9904830493
  O        41.9695402790       35.1726135935        4.0870924143
  O        21.6912921449       -0.0695633949       11.8959639347
  O        51.3650933264       18.6143001509        4.0053311855
  O        10.7512552223       18.7471049138       11.9048988160
  O        50.0793009843       16.4127428906        4.0917451225
  O         9.5242130759       16.4830929574       11.9912452271
 Zr         9.2976230426       16.0526011660        6.1824938929
 Zr        49.8369016264       16.0066213856        9.7463516854
 Zr        22.0734612456        0.0306400371        6.1889401662
 Zr        42.4611460486       35.1541024218        9.8009628419
 Zr        29.6044115645       19.0869616233        6.2391471927
 Zr        29.5791009710       19.1910145818        9.8017560034
 Zr        11.0385481746       19.0518685487        9.8278769411
 Zr        11.0443381585       19.1547709913        6.2509699967
 Zr        31.3408360383       16.0927696154        9.8451235600
 Zr        31.3690535170       16.0014679836        6.2663354626
 Zr        18.6014379884       -0.0006449290        9.7633255197
 Zr        18.5065929120       -0.0074339543        6.2135899492
 Zr        12.3026631541       16.3234646914        7.9903535731
 Zr        48.6173084975       18.8332385561        8.0104430966
 Zr        20.3155962402        2.4739836313        7.9903385604
 Zr        40.6437496344       32.6877609499        7.9779294957
 Zr        28.3422941836       16.3343876336        8.0820645416
 Zr        32.6231011242       18.8364164210        8.0422603126
  H        31.8224268925       18.4397098681       14.2241031970
  H        28.9642867569       15.4691587052        1.5750776331
  H        31.9438395960       19.5483569673        0.8988660263
  H        29.6756809504       18.0879399714        1.4348067554
