     574
 i =      168, E =     -4778.8497534798
  C        11.8588158492       14.0534004276        5.7415342011
  C        12.4563328483       12.8904309428        5.0232964497
  C        11.7048185150       12.1717926539        4.0812822967
  C        12.2812386567       11.1096124037        3.3889319464
  C        13.6216964803       10.7395795431        3.6169868205
  C        14.3546524243       11.4428092090        4.5908705348
  C        13.7817015412       12.5077380564        5.2823897691
  C        14.2613146335        9.6490147319        2.8435619814
  C        14.2566622654        9.6569873665        1.4218646227
  C        13.7434256393       10.7590752465        0.6679491422
  C        49.1268099146       21.2333053562        5.8797734105
  C        48.5500751917       22.4012132195        5.1526078442
  C        49.3000359834       23.0684838772        4.1715362185
  C        48.7331072900       24.1076299212        3.4383418812
  C        47.4025791510       24.5092715169        3.6670428332
  C        46.6716348114       23.8604334556        4.6805835473
  C        47.2341394264       22.8155420386        5.4099065635
  C        46.7723578434       25.5870076061        2.8698187893
  C        46.7612958390       25.5574229979        1.4480628114
  C        47.2610915171       24.4422760728        0.7045596159
  C        14.8607164810        8.5707258697        0.7085845391
  C        14.8921611511        8.5970942786        3.5201963900
  C        49.1132202363       21.2036074447       10.1455869720
  C        48.5279038526       22.3649515460       10.8727690846
  C        49.2671369069       23.0257884308       11.8655929092
  C        48.6907598514       24.0603523575       12.5969947064
  C        47.3603079901       24.4570064346       12.3587791804
  C        46.6398405963       23.8118966786       11.3354353251
  C        47.2134360738       22.7759700594       10.6037271482
  C        46.7218351477       25.5319783779       13.1497656594
  C        46.7335347530       25.5283105827       14.5714592467
  C        47.2488225787       24.4290036081       15.3278018750
  C        40.6429013962       17.1380145558       15.3071527855
  C        40.6478608730       17.1476067310       12.4988800459
  C        11.8829956940       14.0864354751       10.2855520902
  C        12.4723132675       12.9105804231       10.9897100543
  C        11.7148825452       12.1775472420       11.9160182196
  C        12.2815099776       11.0951002679       12.5844192028
  C        13.6202528862       10.7212133616       12.3523666873
  C        14.3580746884       11.4365510783       11.3912681747
  C        13.7926111189       12.5176956505       10.7185746293
  C        14.2539435043        9.6245496365       13.1227988401
  C        14.2527720759        9.6445990218       14.5446327572
  C        13.7428362991       10.7535268828       15.2916970598
  C        22.5122985823        3.2458891864        5.7537807443
  C        23.2253993583        4.3546575844        5.0575455057
  C        24.2265860845        4.0820695999        4.1135668840
  C        24.8497742728        5.1266412273        3.4351235728
  C        24.4876284020        6.4663233600        3.6799823581
  C        23.5151608861        6.7303780365        4.6615757906
  C        22.8875086899        5.6879063109        5.3384825623
  C        25.0844216350        7.5782960808        2.9043915635
  C        25.0504930603        7.5718635768        1.4829825999
  C        24.3539558702        6.5668932461        0.7391701095
  C        38.2990026122       31.9286215999        5.8521320282
  C        37.5595951879       30.8396985895        5.1500080720
  C        36.5958590152       31.1460204291        4.1769131599
  C        35.9684013375       30.1274579229        3.4649903214
  C        36.2896538502       28.7767501880        3.7033622483
  C        37.2225328017       28.4778584299        4.7142535642
  C        37.8539291034       29.4953975594        5.4255646129
  C        35.6813754972       27.6882113024        2.9045608996
  C        35.7198869013       27.7033676158        1.4829320704
  C        36.4341627550       28.7030707383        0.7498128177
  C        25.6608654856        8.6476652301        0.7612852775
  C        25.6770322479        8.6569659460        3.5733129426
  C        38.3306994621       31.9612821933       10.1600147072
  C        37.6140532166       30.8885226955       10.9094787933
  C        36.6833905633       31.1987796524       11.9131100537
  C        36.0739130129       30.1821195992       12.6463653097
  C        36.3798894195       28.8285200797       12.4001265746
  C        37.2911975274       28.5281729933       11.3689479863
  C        37.9026949437       29.5413839956       10.6369316786
  C        35.7651040894       27.7305915792       13.1824232709
  C        35.7628025369       27.7251098084       14.6048973819
  C        36.4534121993       28.7142416085       15.3731963509
  C        46.1355940573       26.6209752168       15.2815957086
  C        46.0878823806       26.5803266132       12.4737094946
  C        22.4596233155        3.2571222024       10.2597965495
  C        23.1482921964        4.3677677784       10.9857968447
  C        24.1453035885        4.0861342694       11.9335124703
  C        24.7665653555        5.1190329618       12.6320606392
  C        24.4117133894        6.4642377795       12.4058219947
  C        23.4380149551        6.7388835359       11.4265214560
  C        22.8118406561        5.7064347466       10.7289011625
  C        25.0356432051        7.5669272561       13.1802786665
  C        25.0258930812        7.5651332798       14.6034638658
  C        24.3398439086        6.5649239622       15.3623107357
  C        26.6180854205       17.8502967472        5.7373621288
  C        25.3211311101       17.8972730007        5.0038683900
  C        25.0391549253       18.9083071587        4.0721193246
  C        23.8185111866       18.9263471723        3.4005299780
  C        22.8442318922       17.9365186700        3.6401946659
  C        23.1224868895       16.9459510386        4.6002049839
  C        24.3439710918       16.9232466078        5.2694822506
  C        21.5675194220       17.9197561089        2.8842348482
  C        21.5695934820       17.8992481651        1.4626970921
  C        22.7765158158       17.7750257442        0.7045464667
  C        34.5390644259       17.2934827461        6.0018943477
  C        35.8199230009       17.2395055416        5.2404395105
  C        36.0216415036       16.2352720149        4.2807516137
  C        37.1789023408       16.2221007938        3.5086214983
  C        38.1696937940       17.2052384676        3.6874064815
  C        37.9739427501       18.1906577363        4.6731993470
  C        36.8085433770       18.2150396480        5.4351112309
  C        39.4125566631       17.1958395894        2.8857531967
  C        39.3973763790       17.1826797771        1.4652167833
  C        38.1846444947       17.2883188336        0.7145925557
  C        20.3237364996       17.9173546115        0.7547797835
  C        20.3444549877       17.9192875431        3.5686803280
  C        34.4789423204       17.2414385221       10.1826703713
  C        35.7789364295       17.1678335708       10.9038517393
  C        35.9818924941       16.1923592068       11.8909923011
  C        37.1672218165       16.1709774105       12.6188119283
  C        38.1740973722       17.1248829487       12.3775407327
  C        37.9766744597       18.0754877959       11.3590188009
  C        36.7894297314       18.1021607395       10.6337467181
  C        39.4208671910       17.1415248796       13.1700162494
  C        39.4020717187       17.1583673819       14.5908153793
  C        38.1870731203       17.2767978244       15.3375292800
  C        35.1225245805       26.6488277889       15.3051439874
  C        35.1774164799       26.6603371150       12.4958371504
  C        26.5702699628       17.8261484212       10.3246780605
  C        25.2553547940       17.8727861017       11.0281629606
  C        24.9983340336       18.8677309477       11.9833040000
  C        23.7786547584       18.8944189244       12.6533337607
  C        22.7896160724       17.9246357593       12.3940826693
  C        23.0425516516       16.9537076202       11.4082338006
  C        24.2618745394       16.9259674028       10.7347037633
  C        21.5257192243       17.9036775198       13.1654271058
  C        21.5478747473       17.8876348151       14.5866296865
  C        22.7656877727       17.7678199189       15.3285168029
  C        14.0453407806       17.8294283788       10.2868220506
  C        15.3502984760       17.8875852073       11.0091271771
  C        15.6071259733       18.8908202696       11.9562535222
  C        16.8169470652       18.9113878094       12.6470628712
  C        17.8022379684       17.9316772191       12.4113480076
  C        17.5505762744       16.9532550776       11.4314510480
  C        16.3400925775       16.9278800348       10.7426923316
  C        19.0703213575       17.9120968008       13.1797134191
  C        19.0667448505       17.9028000125       14.6016780041
  C        17.8589792935       17.8008668342       15.3615572752
  C        46.8060692660       17.2160838280       10.1546173736
  C        45.5142847890       17.1499203895       10.8927255867
  C        45.3067090878       16.1691044595       11.8743988161
  C        44.1241520655       16.1513206304       12.6079701654
  C        43.1223610951       17.1144208831       12.3802773591
  C        43.3253454968       18.0721790138       11.3689754279
  C        44.5085554289       18.0939723640       10.6364405433
  C        41.8735648440       17.1321323610       13.1722148031
  C        41.8863072222       17.1414022677       14.5930428485
  C        43.0999914015       17.2385630633       15.3433987034
  C        20.3125292243       17.9110527249       15.3103865974
  C        20.2943858411       17.8960453082       12.4979770616
  C        46.7932087089       17.2343392387        5.8871593237
  C        45.4973540631       17.1422406288        5.1632038776
  C        45.2792007344       16.1498104592        4.1962233625
  C        44.0967233089       16.1374559880        3.4622292080
  C        43.1072430242       17.1151299106        3.6802476359
  C        43.3167643039       18.0788826881        4.6836725217
  C        44.4997618752       18.0973161801        5.4130356686
  C        41.8628137572       17.1464091294        2.8864541430
  C        41.8810513619       17.1470369552        1.4665858682
  C        43.0976701165       17.2381662844        0.7199804866
  C        46.1533684600       26.6373728508        0.7263490920
  C        46.1624628782       26.6561316156        3.5359831157
  C        14.0436575728       17.8293430498        5.7069996935
  C        15.3626696469       17.8981011729        5.0117730476
  C        15.6375847069       18.9131321922        4.0833412883
  C        16.8650909459       18.9461418270        3.4254959894
  C        17.8450020900       17.9632269655        3.6705565830
  C        17.5764925211       16.9759633962        4.6359297351
  C        16.3509968614       16.9424870224        5.2972593862
  C        19.1120272331       17.9373204017        2.9013952724
  C        19.0886323548       17.9151450515        1.4797666052
  C        17.8693736244       17.8065562526        0.7379782146
  C        28.8063431304       14.0911330422       10.3915709206
  C        28.1823089490       12.9246585384       11.0825533361
  C        28.8929133119       12.1918109351       12.0448914722
  C        28.2843922290       11.1237125400       12.6993333878
  C        26.9516215711       10.7632239728       12.4140858376
  C        26.2632734231       11.4763613987       11.4164418932
  C        26.8688763162       12.5459910294       10.7618364866
  C        26.2765702680        9.6868794183       13.1747922669
  C        26.2554389145        9.7205487262       14.5955964464
  C        26.7428041126       10.8424118527       15.3386435319
  C        32.1788356437       21.2453971738       10.1470621264
  C        32.7739970784       22.4117175248       10.8654253783
  C        32.0223400883       23.0908641480       11.8368614089
  C        32.5907974984       24.1304509349       12.5666927091
  C        33.9268326756       24.5184685510       12.3471752027
  C        34.6612954994       23.8572047831       11.3446644644
  C        34.0951017085       22.8124204781       10.6162373604
  C        34.5534235043       25.5929274893       13.1512992172
  C        34.5329369970       25.5663675476       14.5732461850
  C        34.0124118380       24.4549442193       15.3088616709
  C        25.6537442833        8.6397837293       15.3162764568
  C        25.6486107036        8.6299993142       12.5026493507
  C        32.0799798433       21.2073558577        5.8782765191
  C        32.6443395070       22.3732706757        5.1382402335
  C        31.9066581247       23.0385600777        4.1465873948
  C        32.4829154119       24.0740799453        3.4132059381
  C        33.8109852227       24.4781068025        3.6547285892
  C        34.5295947544       23.8300929078        4.6780808945
  C        33.9594429525       22.7888112612        5.4043664374
  C        34.4542244986       25.5605498442        2.8732022349
  C        34.4791330748       25.5509685233        1.4509801988
  C        33.9842034354       24.4484879714        0.6855694659
  C        40.6399290187       17.1456065459        0.7506130836
  C        40.6377059981       17.1928246903        3.5587629259
  C        28.7181631231       14.1052859470        5.8176977912
  C        28.0968578312       12.9611357392        5.0854661108
  C        28.8168374738       12.2911869642        4.0842833362
  C        28.2354409272       11.2341430741        3.3889240903
  C        26.9162390812       10.8208192533        3.6656973138
  C        26.2136716574       11.4801531644        4.6923279045
  C        26.7941988083       12.5373216974        5.3915627025
  C        26.2752192330        9.7276345700        2.8949630203
  C        26.2553907341        9.7420356879        1.4724815691
  C        26.7390559036       10.8549657269        0.7148293086
  C        18.1354908996        3.1809606532       10.3171867674
  C        17.4063078344        4.2782294275       11.0158722652
  C        16.3903426408        3.9999438235       11.9431305099
  C        15.7426930327        5.0399801215       12.6066115327
  C        16.0949349980        6.3836435338       12.3671250963
  C        17.0846274260        6.6531006857       11.4036755446
  C        17.7336636634        5.6157025963       10.7386571314
  C        15.4705891342        7.4913656245       13.1301136816
  C        15.4859719846        7.4907160383       14.5518149183
  C        16.1876517296        6.4971774643       15.3049701246
  C        42.9458785012       31.8596167284       10.0728681635
  C        43.6462390056       30.7719648858       10.8168477381
  C        44.5917387447       31.0933104668       11.8029407350
  C        45.1974602800       30.0877982960       12.5506365078
  C        44.8710701050       28.7347243056       12.3357750214
  C        43.9452871933       28.4203250087       11.3225351193
  C        43.3364920819       29.4254588868       10.5744659308
  C        45.4886895024       27.6554616495       13.1389798713
  C        45.4929005977       27.6811095948       14.5606747004
  C        44.8059018463       28.6891953512       15.3073277419
  C        14.8569080017        8.5631541864       15.2641627947
  C        14.8751933726        8.5630391720       12.4514984658
  C        42.9464431441       31.9616460945        5.8090345443
  C        43.6917192053       30.8855197705        5.0956077539
  C        44.6562912312       31.1914668506        4.1232964549
  C        45.2778807227       30.1719031111        3.4056019292
  C        44.9541861175       28.8215668897        3.6432590456
  C        44.0208219517       28.5238605323        4.6541403292
  C        43.3925037061       29.5406051892        5.3663013250
  C        45.5632035368       27.7241847502        2.8579819786
  C        45.5334705719       27.7175426667        1.4366806775
  C        44.8271953177       28.7078081164        0.6837232951
  C        35.0979517924       26.6394903734        0.7504426623
  C        35.0673878593       26.6154565481        3.5610212591
  C        18.1487015113        3.2470180936        5.7066069717
  C        17.4302712648        4.3438871020        4.9972010880
  C        16.4149113563        4.0526798339        4.0737896266
  C        15.7667161442        5.0833670550        3.3983802545
  C        16.1216004017        6.4285548570        3.6209921854
  C        17.1132488403        6.7118512853        4.5779821401
  C        17.7608296146        5.6828999939        5.2577745682
  C        15.4911106538        7.5242684455        2.8485739176
  C        15.4970201654        7.5076627769        1.4274482625
  C        16.1939064876        6.5060227133        0.6807813490
  H        10.6727691176       12.4660967195        3.9040640210
  H        11.6950475300       10.5513138772        2.6621710148
  H        15.3915542310       11.1679226087        4.7729126093
  H        14.3509545936       13.0706349197        6.0182377102
  H        13.3763193646       11.6311631644        1.2012491993
  H        50.3227235416       22.7484021022        3.9867565936
  H        49.3195190345       24.6228730482        2.6806914501
  H        45.6421316687       24.1611674149        4.8637676688
  H        46.6631893530       22.2903221099        6.1720625851
  H        47.6294096435       23.5757945898        1.2462273321
  H        14.8724782899        8.5882768668        4.6085021373
  H        50.2872144148       22.7030212772       12.0604579856
  H        49.2691141764       24.5759325312       13.3604401195
  H        45.6103622617       24.1089526227       11.1464871907
  H        46.6525476937       22.2536014426        9.8323562560
  H        47.6073985712       23.5518154582       14.7968813145
  H        40.6480766451       17.1094908209       11.4112889295
  H        48.6872299052       14.0946235502        7.8002295860
  H        10.6814611672       12.4667304559       12.0935678103
  H        11.6897864468       10.5247993052       13.2972503467
  H        15.3934297705       11.1585025312       11.2051355711
  H        14.3648230898       13.0868987943        9.9898126147
  H        13.3758983381       11.6220899049       14.7530543206
  H        47.9302588088       14.2182647099        9.7106317704
  H        47.7801136403       14.3729637453        6.4954393068
  H        49.0831532573       18.5520371125       10.8673610072
  H        10.4161934502       14.1340994204        7.9987771961
  H        24.4940832922        3.0453955205        3.9211875127
  H        25.6256893455        4.9146254685        2.7026890624
  H        23.2276692602        7.7613302946        4.8572552206
  H        22.1142557501        5.8829728053        6.0774711975
  H        23.7998333788        5.8062702848        1.2813886714
  H        36.3638547638       32.1900147556        3.9799952970
  H        35.2220297824       30.3692964064        2.7114813125
  H        37.4783658666       27.4378885533        4.9063718926
  H        38.6000322211       29.2717189090        6.1844405328
  H        36.9982462071       29.4510591110        1.2992301497
  H        25.7195456667        8.6372317806        4.6608388749
  H        36.4571924747       32.2432647609       12.1154416479
  H        35.3457869339       30.4296824191       13.4156578649
  H        37.5412696652       27.4877558545       11.1720006003
  H        38.6271913602       29.3131025158        9.8589563948
  H        37.0331275120       29.4705566944       14.8517241347
  H        46.1092427427       26.5876894204       11.3856732874
  H        44.6683617325       35.1162836714        7.8138529553
  H        24.4247744231        3.0489586443       12.1044868217
  H        25.5436141511        4.8924734815       13.3589989899
  H        23.1519673007        7.7723623830       11.2418186341
  H        22.0443646583        5.9169426902        9.9876482131
  H        23.7739897434        5.8036727095       14.8331166721
  H        44.9540320620       34.3907180295        9.6954695299
  H        44.9016121946       34.2067835007        6.4906049607
  H        40.6665513507       33.2094152409       10.8533392933
  H        23.1502138573        1.9584934764        8.0058091181
  H        25.7768899405       19.6864327472        3.8914738845
  H        23.6035900159       19.7160448532        2.6838165215
  H        22.3820302560       16.1718822535        4.7912036412
  H        24.5706368418       16.1471910491        5.9967836040
  H        23.7168880936       17.6537213692        1.2342469260
  H        35.2558485388       15.4745235818        4.1491879596
  H        37.3342410610       15.4405324616        2.7681315755
  H        38.7346727698       18.9560608245        4.8119651906
  H        36.6358562321       18.9908525097        6.1774465331
  H        37.2469999816       17.4108143411        1.2497332618
  H        20.3516721567       17.9573632447        4.6566112367
  H        35.1905938803       15.4721654903       12.0848270798
  H        37.3265873091       15.4128488084       13.3823199895
  H        38.7502076571       18.8171812008       11.1713254730
  H        36.6124818381       18.8527473288        9.8671160156
  H        37.2508561779       17.3914044743       14.7986337125
  H        35.1587363550       26.6851045012       11.4079226574
  H        28.5067371546       21.0841856705        8.0168306757
  H        25.7681129611       19.6088862279       12.1860140975
  H        23.5781508164       19.6702475812       13.3890273152
  H        22.2872999157       16.1976406601       11.2035846118
  H        24.4741092902       16.1647270228        9.9878123238
  H        23.6974415002       17.6417453100       14.7852732430
  H        28.9973195778       21.7218933744        9.7627498913
  H        29.1332043839       21.7547329573        6.6250482291
  H        32.0941078180       18.5374807712       10.9990032711
  H        27.4020776484       19.0823293124        8.0802877050
  H        14.8481354154       19.6489896378       12.1357030479
  H        17.0138548109       19.6944494509       13.3761306981
  H        18.3021798491       16.1896697738       11.2418700048
  H        16.1320980988       16.1595004641       10.0019414857
  H        16.9170950392       17.6864285796       14.8329068715
  H        46.0895239498       15.4366319666       12.0564385817
  H        43.9617353935       15.3856705178       13.3633749582
  H        42.5573794075       18.8218156746       11.1900751594
  H        44.6852485946       18.8479547821        9.8730663894
  H        44.0388779712       17.3455523997       14.8078008888
  H        20.2886195306       17.9314126221       11.4100305752
  H        46.0511138949       15.4034358694        4.0234366515
  H        43.9252326671       15.3673904001        2.7133469973
  H        42.5555344749       18.8370602471        4.8548230045
  H        44.6865685223       18.8583481779        6.1664940974
  H        44.0349041722       17.3439767155        1.2585753836
  H        46.1993184809       26.6826616642        4.6234287898
  H        52.7410602255       21.0624831653        8.1946801201
  H        14.8796271367       19.6701425190        3.8943324384
  H        17.0777676064       19.7364537581        2.7087744991
  H        18.3242063590       16.2102250790        4.8320901491
  H        16.1281456831       16.1679195608        6.0270399080
  H        16.9354875968       17.6963368495        1.2809486128
  H        52.3217023855       21.6731104119        6.2945971944
  H        52.0128667071       21.7018678415        9.4955303131
  H        49.0691138992       18.6089577866        5.2044005743
  H        13.2475267389       19.0162645445        7.9765633088
  H        29.9213489021       12.4719313025       12.2629035638
  H        28.8366759364       10.5544878351       13.4438978185
  H        25.2335931279       11.2080779413       11.1889857039
  H        26.3347624485       13.1184369225       10.0074651410
  H        27.0942209504       11.7148576115       14.7960951309
  H        30.9966216294       22.7769392910       12.0157637831
  H        32.0024180350       24.6558084697       13.3157749368
  H        35.6957682128       24.1460805035       11.1702833703
  H        34.6687184047       22.2758876361        9.8639013841
  H        33.6583106295       23.5860662157       14.7614968431
  H        25.6844090966        8.6062036441       11.4148967349
  H        30.8821517839       22.7299996013        3.9528198469
  H        31.9034090150       24.5863054517        2.6482659985
  H        35.5571917878       24.1303191701        4.8723533951
  H        34.5226803129       22.2655590339        6.1734174531
  H        33.6079252455       23.5742821199        1.2093584546
  H        40.6361767509       17.1705743927        4.6467526559
  H        32.5218315197       14.1493805630        8.2477439094
  H        29.8313647151       12.6188898568        3.8688464271
  H        28.8031932788       10.7104930330        2.6229446684
  H        25.1931688929       11.1749739470        4.9146207347
  H        26.2470364173       13.0595625781        6.1729197278
  H        27.0858200639       11.7376461605        1.2444412710
  H        33.2946406629       14.1735649790        6.4333446870
  H        33.4090242054       14.3917459595        9.6127896273
  H        32.1215396665       18.5792017353        5.1445625378
  H        30.2183366627       14.1904601036        8.0828469037
  H        16.1180653863        2.9634636176       12.1293469013
  H        14.9530609917        4.8207156556       13.3221079528
  H        17.3673961958        7.6859351094       11.2108359779
  H        18.5160056878        5.8182614731       10.0111098978
  H        16.7543093901        5.7399413870       14.7714256141
  H        44.8279891149       32.1404039972       11.9771038250
  H        45.9373118190       30.3415983512       13.3065799491
  H        43.6826478681       27.3782379205       11.1524310654
  H        42.5999755011       29.1900662813        9.8097226312
  H        44.2305845699       29.4370022915       14.7690406729
  H        14.8513901142        8.5461993726       11.3632783341
  H        44.8997668097       32.2341579408        3.9318105129
  H        46.0247499556       30.4131568714        2.6523373272
  H        43.7639871037       27.4841144627        4.8457901549
  H        42.6461062130       29.3177795245        6.1248386031
  H        44.2687502028       29.4707382818        1.2183079048
  H        35.0209583737       26.6270871081        4.6483776117
  H        36.6053615965       35.1340457051        8.1806917542
  H        16.1436631504        3.0131244936        3.9042082769
  H        14.9742657345        4.8566176367        2.6884045348
  H        17.3970293395        7.7472795881        4.7546531274
  H        18.5439318315        5.8932811291        5.9823158430
  H        16.7654562715        5.7558747509        1.2192259385
  H        36.2791297679       34.4820821348        6.2732487915
  H        36.3814247173       34.2088489727        9.4994864030
  H        40.5797919490       33.2022814018        5.1539725757
  H        17.4711101576        1.9472924737        7.9741833223
  H        29.0048256946       19.2018092231       12.5087226275
  H        29.6972154981       20.0647418411        3.4279817223
  H        32.6408288195       16.2981466333        4.0932461110
  H        31.3385844140       15.5315169573       12.5095811697
  H        28.0099658969       17.6610103785       14.5815693369
  H        29.5601489223       15.0581537859       14.0654059354
  H        31.5368115204       19.2371601145        1.3263358756
  H        32.3283596073       14.5401149348        1.6380917316
  H        28.5332595766       16.2673103630        1.0700008724
  H        31.5176283324       19.3610123304       14.0794492473
  H        18.8542208194        0.8692757867       12.3352333198
  H        40.5280588420       35.2288673969        3.9520065981
  H        42.3247940698       34.4195656805        3.5902146006
  H        22.0879408629        0.6923894584       12.3513292398
  H        11.5967723957       18.7130146581       12.3829058076
  H        52.2645432563       18.4312198440        3.6766903806
  H        49.2553436881       16.4769442206        3.5847043073
  H        10.1499100216       15.7982639857       12.2931716100
  H        50.8498087851       17.6921236256        3.9543427010
  H        10.0458473145       17.3944306167       12.0520744700
  H        20.2157314793        0.0025042557       12.0418505916
  H        39.1838715041       36.1245137402        3.6865403340
 Ni        29.7200117414       17.8799778204        2.3265508991
 Ni        30.7295958828       15.7979474462        0.0875361178
 Ni        29.8037112045       18.8163614944       -0.2455134525
 Ni        30.2668462498       17.4296700316       13.2416530560
  O        10.6500787003       14.3649999758        5.4857954686
  O        12.6132413593       14.6574253596        6.5838859593
  O        49.1485780253       16.8458188590        7.9898940325
  O        50.3503366983       20.9359486226        5.6481546742
  O        48.3486597999       20.5934127686        6.6659742639
  O        11.0518262316       17.0537585622        6.5005987973
  O        50.3211136593       20.8818041099       10.4068953654
  O        48.3467906992       20.5870204831        9.3273275217
  O        49.5439173857       18.2485617454       10.0684934636
  O        12.3590589272       18.6246436253        7.9996904780
  O        48.6934083779       14.1483115157        6.7514363811
  O         8.2100089448       14.2101473857        9.3224334668
  O        10.7354379568       14.5066525675       10.6643769474
  O        12.5718119384       14.5827140934        9.3284878008
  O        22.8449430193        2.0447288017        5.4869307383
  O        21.6050819617        3.5921821682        6.5903790317
  O        42.0581838695       34.1374858107        7.9789599903
  O        37.9813680546       33.1369580857        5.5725467929
  O        39.2176531163       31.5754553687        6.6662581545
  O        20.3085280921        1.0396931021        6.5021384637
  O        38.0245713970       33.1852951106       10.4156372417
  O        39.2185452197       31.5831398490        9.3272903505
  O        40.6522853146       33.7693290121       10.0601884333
  O        18.2557043090        1.3759999882        7.9968317688
  O        44.6221887895       35.1005780916        6.7587004973
  O        24.2054231840        0.0000879310        9.3207687765
  O        22.7531334272        2.0588275749       10.5844807883
  O        21.6245449345        3.5962452230        9.3430034954
  O        27.5431845821       18.6953274180        5.4124293771
  O        26.7300775473       16.9950179802        6.6646048548
  O        30.6713458917       19.4134820773        8.0797698743
  O        33.7123537613       16.3404623533        5.8267614894
  O        34.3448887466       18.3187100647        6.7460577087
  O        29.5740458059       17.0665269208        6.5723787079
  O        33.6213154746       16.3273764806       10.4056760856
  O        34.3076198224       18.2471658463        9.4078654872
  O        31.6568705775       18.3144729444       10.1597988528
  O        30.3221733132       15.1560913817        8.0841273339
  O        28.5500229787       21.0306587180        6.9137494299
  O        28.5134227312       20.9580564715        9.4047290827
  O        27.4565565936       18.6781366319       10.6602554601
  O        26.6944699811       16.9290227289        9.4123302625
  O        13.1480125500       18.6931737135       10.5870680570
  O        13.9186250184       16.9159563868        9.4042266165
  O        50.5967448294       19.3506039863        8.0209028420
  O        47.6851033881       16.3261329122       10.4165124753
  O        46.9530688296       18.1758753848        9.3238906803
  O        11.0696909410       17.0156102969        9.4897570261
  O        47.6787907723       16.3341070214        5.6532759297
  O        46.9352158503       18.2346480412        6.6672984319
  O        49.5697267639       18.3177348336        5.9825163946
  O        10.3187241127       15.0999415274        7.9970763943
  O        52.6707374756       21.0279521594        9.2418432187
  O        12.1469155923       20.8912944699        6.6731860638
  O        13.1079022575       18.6137012577        5.3254594886
  O        13.9564229826       16.9867206213        6.6652876962
  O        29.9890929129       14.4368633535       10.7294474461
  O        28.0881113536       14.6547707090        9.4921060349
  O        32.1091013716       16.9091914216        8.0688330921
  O        30.9667764147       20.9561608818       10.4079619728
  O        32.9477429511       20.6046973671        9.3414759005
  O        29.5672440770       17.0773101245        9.5763188511
  O        30.8496172132       20.8843542873        5.6516542623
  O        32.8657728423       20.5899913817        6.6633409783
  O        31.6180474254       18.2541771622        5.9073445095
  O        28.2854291442       18.6788590326        8.0807081878
  O        32.4935404351       14.2138092524        9.3282513089
  O        32.4091640377       14.2130033730        6.8314007820
  O        29.9013521588       14.4446131147        5.4943845742
  O        28.0060908522       14.6516436447        6.7412744364
  O        17.8892213643        1.9665954469       10.6628270721
  O        18.9562185365        3.5271485543        9.4079794252
  O        39.1686696604       34.1387603355        7.9971744570
  O        43.2802095239       33.0590228048       10.3316947596
  O        42.0344467381       31.5064916597        9.2416245969
  O        20.3177926188        1.0367885943        9.4802187436
  O        43.2760267666       33.1825868526        5.5749073083
  O        42.0051933584       31.5841133244        6.5830053494
  O        40.5790580077       33.7750493301        5.9360293532
  O        22.3674726950        1.3847331116        7.9979531567
  O        36.6728150821       35.0997009465        9.2333507044
  O        16.4456771322        0.0642144261        6.6682615014
  O        17.9365036502        2.0433921589        5.3264026243
  O        18.9190338971        3.5931526302        6.6659641858
  O        29.4039670434       19.2623918853        3.9099827643
  O        29.8119349455       18.9888670254       11.9937881595
  O        31.7236122180       15.9764263455        4.1645830693
  O        31.3655462457       16.3481095074       11.9725794428
  O        32.0203175391       15.4598943946        1.6458212278
  O        29.3971373060       16.1994261938        1.5114245655
  O        30.2883319156       15.6680912398       14.2650783482
  O        31.3418583973       18.5356965143       14.5696671533
  O        30.5821316773       19.4110304620        1.4137114409
  O        28.6786131326       18.3139329299       14.3203460971
  O        39.4568225438       35.2437798830        4.0019779057
  O        19.1421469660        0.0048173618       11.9904913367
  O        41.9695486132       35.1727653930        4.0872369910
  O        21.6914777376       -0.0691830384       11.8959308967
  O        51.3649658127       18.6142394124        4.0054105042
  O        10.7511419723       18.7472919981       11.9051184441
  O        50.0799566991       16.4128887342        4.0917005299
  O         9.5242160326       16.4831134185       11.9913288484
 Zr         9.2969213584       16.0522247923        6.1826195234
 Zr        49.8363032260       16.0065196183        9.7464601205
 Zr        22.0735075894        0.0305237341        6.1888266689
 Zr        42.4612163717       35.1539828016        9.8009492649
 Zr        29.6345718258       19.1047320735        6.3999958194
 Zr        29.5760838209       19.1653993999        9.9218643928
 Zr        11.0377921708       19.0520510535        9.8279075446
 Zr        11.0438489998       19.1547422082        6.2512443409
 Zr        31.3588560849       16.0967607385        9.8760251942
 Zr        31.4031000320       15.9858870418        6.2510078243
 Zr        18.6014227439       -0.0012185452        9.7634798260
 Zr        18.5068739776       -0.0074152639        6.2137579798
 Zr        12.3011399831       16.3233969148        7.9903474826
 Zr        48.6176352900       18.8332949719        8.0112881506
 Zr        20.3156891208        2.4739942054        7.9907369302
 Zr        40.6436417635       32.6872772023        7.9782160044
 Zr        28.3513599729       16.3414219371        8.0921929378
 Zr        32.6601778355       18.8374087284        8.0797861824
  H        28.4116639670       19.2500081695        4.0215214724
  H        31.6914711542       15.6177102490        2.6097771675
