     569
 i =      139, E =     -4729.5057643864
  C        11.8588401649       14.0536359165        5.7416399473
  C        12.4564632286       12.8907995551        5.0233028096
  C        11.7047962431       12.1718685638        4.0816159317
  C        12.2812046556       11.1096974187        3.3892488135
  C        13.6217971581       10.7399237922        3.6169445844
  C        14.3549527155       11.4435149300        4.5904198909
  C        13.7820184378       12.5084336748        5.2819841933
  C        14.2612914951        9.6492332301        2.8435472841
  C        14.2563812987        9.6570228379        1.4218423493
  C        13.7430576957       10.7590465989        0.6678954492
  C        49.1269041418       21.2330567553        5.8797290901
  C        48.5502002170       22.4010038552        5.1525924844
  C        49.3002604868       23.0683375340        4.1716284642
  C        48.7333667776       24.1075183907        3.4384423677
  C        47.4028299927       24.5091958374        3.6670414374
  C        46.6718443487       23.8602931196        4.6805151408
  C        47.2342544223       22.8153526244        5.4098517943
  C        46.7726056045       25.5869302927        2.8697790624
  C        46.7616319287       25.5573614368        1.4480101533
  C        47.2615693836       24.4422791253        0.7045001728
  C        14.8602977413        8.5706651165        0.7085875917
  C        14.8921770602        8.5973425575        3.5202041022
  C        49.1135178521       21.2033552351       10.1453411581
  C        48.5283016993       22.3648814475       10.8724241796
  C        49.2674945909       23.0254008869       11.8654993843
  C        48.6912477638       24.0600092340       12.5969650660
  C        47.3609432302       24.4570647436       12.3585770594
  C        46.6406095894       23.8123900138       11.3348446236
  C        47.2140630617       22.7764238377       10.6030624333
  C        46.7224826283       25.5320224474       13.1496360040
  C        46.7340448211       25.5282895851       14.5713513966
  C        47.2493872705       24.4290322627       15.3277352261
  C        40.6196790849       17.0855352336       15.3044933864
  C        40.6281439427       17.1012999712       12.4947616114
  C        11.8830745497       14.0865445807       10.2854784083
  C        12.4722422235       12.9106009818       10.9894973439
  C        11.7146769961       12.1775276699       11.9156921764
  C        12.2811811297       11.0950479756       12.5841283610
  C        13.6199527283       10.7211427527       12.3522444180
  C        14.3579064373       11.4365030291       11.3912618459
  C        13.7925878213       12.5177183934       10.7185492229
  C        14.2535457968        9.6244425402       13.1227332818
  C        14.2522813449        9.6444720349       14.5445783971
  C        13.7423731237       10.7534149937       15.2916377222
  C        22.5123277859        3.2434615387        5.7536948607
  C        23.2288534924        4.3467542659        5.0547648902
  C        24.2240342105        4.0634536784        4.1076660857
  C        24.8532649820        5.1009889241        3.4250464614
  C        24.5026022144        6.4434107754        3.6697720554
  C        23.5359695032        6.7181460054        4.6542249831
  C        22.9020560344        5.6824996024        5.3352973352
  C        25.1084292842        7.5489680944        2.8938712222
  C        25.0759585814        7.5446511877        1.4725863570
  C        24.3741050530        6.5452516634        0.7264434117
  C        38.2974463435       31.9298280251        5.8537424196
  C        37.5527378320       30.8428485790        5.1545123886
  C        36.5844614667       31.1533106956        4.1873185174
  C        35.9508702367       30.1376074502        3.4770291089
  C        36.2707837327       28.7860300638        3.7112468242
  C        37.2082393738       28.4827541478        4.7165262660
  C        37.8457524620       29.4975955828        5.4263150938
  C        35.6571947877       27.7008957457        2.9120580637
  C        35.6942449655       27.7183635299        1.4905425420
  C        36.4093773687       28.7176919395        0.7577239931
  C        25.6933000890        8.6181401926        0.7533430875
  C        25.7086695062        8.6212705061        3.5652475515
  C        38.3304724088       31.9614128197       10.1607316034
  C        37.6118697634       30.8907781992       10.9123876157
  C        36.6785317997       31.2059687455       11.9121644196
  C        36.0643121961       30.1932852415       12.6470134704
  C        36.3681260172       28.8381785401       12.4066231771
  C        37.2834840750       28.5327289414       11.3804605652
  C        37.8995053219       29.5421830153       10.6465117942
  C        35.7460581710       27.7441840967       13.1894151254
  C        35.7390298102       27.7408214757       14.6122329429
  C        36.4298326402       28.7294582085       15.3811139275
  C        46.1359717367       26.6208977641       15.2814946072
  C        46.0885945063       26.5804351403       12.4735920151
  C        22.4609091782        3.2560370722       10.2576529525
  C        23.1544397717        4.3648240183       10.9802834567
  C        24.1572727932        4.0794340201       11.9205670849
  C        24.7843118884        5.1099556694       12.6167493008
  C        24.4285911960        6.4555914759       12.3955592144
  C        23.4491665111        6.7342110035       11.4233985499
  C        22.8175818798        5.7040238814       10.7275313655
  C        25.0571420465        7.5542751123       13.1707415353
  C        25.0497828981        7.5471205488       14.5935998815
  C        24.3599842916        6.5473614328       15.3495592452
  C        26.6065723104       17.8537920957        5.7790895115
  C        25.2985250919       17.9042325043        5.0607571363
  C        25.0338263262       18.9094390488        4.1167351511
  C        23.8219177371       18.9292010108        3.4296252629
  C        22.8374617458       17.9473280365        3.6629054392
  C        23.0972985661       16.9654892171        4.6380919736
  C        24.3112755544       16.9401190818        5.3234972835
  C        21.5692191412       17.9336546766        2.8897157672
  C        21.5809710738       17.9345659902        1.4666644764
  C        22.7934388134       17.8262991446        0.7150744510
  C        34.4429718107       17.1874660873        5.9162252267
  C        35.7367407965       17.1387781982        5.1752137651
  C        35.9417209899       16.1665572734        4.1834040794
  C        37.1207644839       16.1527259578        3.4439512527
  C        38.1281940788       17.1094087967        3.6759873947
  C        37.9265772142       18.0617345254        4.6932970282
  C        36.7441875349       18.0815156378        5.4300179858
  C        39.3800777528       17.1158286035        2.8849610563
  C        39.3706045196       17.1181100985        1.4628209062
  C        38.1608293402       17.2339344300        0.7084059208
  C        20.3403891876       17.9600296030        0.7476008285
  C        20.3387824027       17.9201318311        3.5618265115
  C        34.4400181452       17.2371620038       10.1800057725
  C        35.7417983549       17.1378353271       10.9000588530
  C        35.9405558656       16.1641036673       11.8905525288
  C        37.1297898724       16.1322826389       12.6144807749
  C        38.1491477159       17.0734477848       12.3694820361
  C        37.9565112940       18.0190185380       11.3443869479
  C        36.7669567224       18.0557411119       10.6228242717
  C        39.3982631162       17.0881268850       13.1632623937
  C        39.3796364440       17.1044963556       14.5850372630
  C        38.1651112992       17.2262678243       15.3314910315
  C        35.0944892105       26.6670874961       15.3129523056
  C        35.1568567619       26.6745586563       12.5027517456
  C        26.6369289442       17.8092906239       10.3377139720
  C        25.3303163693       17.8899124989       11.0586571702
  C        25.0724153279       18.9035506758       11.9941449329
  C        23.8455571530       18.9537715082       12.6548395985
  C        22.8448380814       17.9921058141       12.4047279956
  C        23.1000364117       17.0028152919       11.4372825046
  C        24.3247790485       16.9503631779       10.7760547275
  C        21.5701461772       17.9848189281       13.1650468623
  C        21.5808417980       17.9613211477       14.5870735291
  C        22.7927037044       17.8390725348       15.3387070325
  C        14.0544375000       17.8353138230       10.2845298896
  C        15.3693768849       17.9097952992       10.9956909709
  C        15.6295044267       18.9239993110       11.9313683570
  C        16.8451982142       18.9613753698       12.6135047142
  C        17.8397522443       17.9881158992       12.3847768459
  C        17.5856137644       17.0001124233       11.4140088074
  C        16.3690003394       16.9581794679       10.7331079014
  C        19.1099282045       17.9804286755       13.1586904617
  C        19.0981815999       17.9640429028       14.5821230776
  C        17.8856142181       17.8531880304       15.3333563159
  C        46.8022258248       17.2154814338       10.1557665266
  C        45.5075965158       17.1439912703       10.8938140512
  C        45.3006650286       16.1582236659       11.8713060413
  C        44.1159290642       16.1300699122       12.6023521490
  C        43.1072678995       17.0875613551       12.3787166268
  C        43.3103821621       18.0515327598       11.3726002035
  C        44.4960318041       18.0835456319       10.6422250126
  C        41.8544173972       17.0926077175       13.1693346799
  C        41.8642678363       17.0967927166       14.5915223331
  C        43.0755947704       17.1956425517       15.3459115780
  C        20.3391988557       17.9723900959       15.3016959618
  C        20.3418401689       17.9742778931       12.4878733379
  C        46.7856703880       17.2328548826        5.8855317576
  C        45.4855365795       17.1296493101        5.1630307658
  C        45.2694911205       16.1309594756        4.2011372716
  C        44.0833358820       16.1030836197        3.4715672051
  C        43.0829541603       17.0712968464        3.6857546135
  C        43.2906030110       18.0415992609        4.6841122991
  C        44.4775832181       18.0754288873        5.4093328070
  C        41.8349030559       17.0886876550        2.8906530234
  C        41.8546169577       17.0933804715        1.4692196965
  C        43.0710997727       17.1912140757        0.7229301620
  C        46.1536504580       26.6372697749        0.7262684401
  C        46.1626482625       26.6560471702        3.5359214114
  C        14.0439883980       17.8269510788        5.7029376730
  C        15.3594533064       17.8915355430        4.9991789703
  C        15.6343437334       18.9111175030        4.0753454163
  C        16.8599225774       18.9459468782        3.4134554213
  C        17.8396974329       17.9602745262        3.6488094214
  C        17.5693118289       16.9650413344        4.6058718974
  C        16.3459120075       16.9300347295        5.2717364694
  C        19.1113219143       17.9449230417        2.8851855896
  C        19.0993726807       17.9444971631        1.4628519951
  C        17.8863195954       17.8445198682        0.7099679265
  C        28.8063751970       14.0896746772       10.3927573503
  C        28.1909951087       12.9198951417       11.0817551768
  C        28.9031998185       12.1975078763       12.0507022757
  C        28.3023123953       11.1235221201       12.7018296487
  C        26.9747090266       10.7493093293       12.4100681713
  C        26.2851354700       11.4528724906       11.4061790296
  C        26.8838755244       12.5264248056       10.7523525287
  C        26.3037008189        9.6705315097       13.1697573050
  C        26.2874487774        9.6979914348       14.5908898124
  C        26.7812550569       10.8145116367       15.3376415774
  C        32.1777603128       21.2354282473       10.1810668936
  C        32.7531946355       22.4094025707       10.8992999046
  C        31.9918063916       23.1139228521       11.8451044129
  C        32.5578500477       24.1616751717       12.5655993198
  C        33.9004950018       24.5343167169       12.3602974298
  C        34.6434278019       23.8517877767       11.3787085385
  C        34.0800608183       22.7998755808       10.6600525807
  C        34.5264073310       25.6121851599       13.1597482818
  C        34.5019411779       25.5866137819       14.5811041377
  C        33.9794793258       24.4756137782       15.3156175593
  C        25.6837920205        8.6161835421       15.3086496393
  C        25.6711959213        8.6176288544       12.4954995106
  C        32.0780347231       21.1982905208        5.8718974968
  C        32.6411102765       22.3696455829        5.1380012399
  C        31.9040704190       23.0145171496        4.1327804295
  C        32.4707124543       24.0603942933        3.4063290045
  C        33.7886074219       24.4884868799        3.6623064286
  C        34.5061238290       23.8569088422        4.6968671494
  C        33.9442327881       22.8094102548        5.4208793133
  C        34.4269531968       25.5742737010        2.8812766358
  C        34.4514089302       25.5672396207        1.4587073803
  C        33.9554977130       24.4660218840        0.6922204889
  C        40.6145897609       17.0881898589        0.7496949093
  C        40.6061312423       17.1176070553        3.5598637070
  C        28.7455213844       14.0617699628        5.8129582413
  C        28.1374723173       12.9136598089        5.0804626252
  C        28.8651369983       12.2332294302        4.0923812521
  C        28.2839228511       11.1766968792        3.3960007983
  C        26.9591274501       10.7754535905        3.6615770658
  C        26.2494782695       11.4433372150        4.6771079562
  C        26.8290061618       12.5000822334        5.3759461124
  C        26.3149864112        9.6873907390        2.8885691530
  C        26.2954844422        9.7061735458        1.4668488741
  C        26.7837060729       10.8196969964        0.7136421689
  C        18.1354446259        3.1810176922       10.3172000359
  C        17.4061368537        4.2782218867       11.0158134327
  C        16.3902731582        3.9998604451       11.9431757895
  C        15.7425307728        5.0398352178       12.6066546008
  C        16.0945778637        6.3835425306       12.3671024623
  C        17.0841625897        6.6530773670       11.4035574814
  C        17.7332782668        5.6157384651       10.7385228855
  C        15.4701585833        7.4912155968       13.1301136570
  C        15.4854460331        7.4905725917       14.5518240527
  C        16.1871179770        6.4970421724       15.3049937637
  C        42.9458946620       31.8595732866       10.0728681672
  C        43.6464252938       30.7719054489       10.8167570667
  C        44.5916198658       31.0933532298       11.8031127494
  C        45.1974918598       30.0878901090       12.5507689906
  C        44.8715703370       28.7347434080       12.3356481624
  C        43.9461696630       28.4202763066       11.3220671894
  C        43.3372055151       29.4253416000       10.5740290664
  C        45.4892253031       27.6554851500       13.1388579365
  C        45.4932787887       27.6810383094       14.5605669853
  C        44.8061397823       28.6890316562       15.3072178482
  C        14.8564178120        8.5630486016       15.2641545669
  C        14.8748317887        8.5629227014       12.4514810106
  C        42.9464630410       31.9616169839        5.8089754498
  C        43.6917515055       30.8854456548        5.0955422792
  C        44.6563096708       31.1913776642        4.1232073641
  C        45.2779074687       30.1718024822        3.4055129858
  C        44.9542516769       28.8214554960        3.6431712094
  C        44.0208578755       28.5237752841        4.6540396286
  C        43.3925283015       29.5405233705        5.3662051609
  C        45.5633211764       27.7240603486        2.8579015089
  C        45.5336504705       27.7173972693        1.4365907819
  C        44.8273598557       28.7076316150        0.6836147760
  C        35.0698681592       26.6562478934        0.7582189846
  C        35.0413061060       26.6292462777        3.5681898723
  C        18.1486375152        3.2471010944        5.7065703555
  C        17.4301754405        4.3439485994        4.9972157854
  C        16.4147100674        4.0527693446        4.0738925293
  C        15.7664630702        5.0834568951        3.3985276582
  C        16.1214486518        6.4286470746        3.6210389122
  C        17.1131682755        6.7119409726        4.5779636871
  C        17.7607850439        5.6829745483        5.2577140089
  C        15.4909178364        7.5243611047        2.8486191414
  C        15.4966481568        7.5076450278        1.4274850836
  C        16.1934156796        6.5059323494        0.6808062069
  H        10.6726436254       12.4659304426        3.9046176142
  H        11.6949036701       10.5511789305        2.6627477785
  H        15.3919996926       11.1689560790        4.7721317030
  H        14.3514620886       13.0715721522        6.0175050277
  H        13.3760452242       11.6311969210        1.2011621818
  H        50.3229674405       22.7482891966        3.9868909262
  H        49.3198982899       24.6228063055        2.6809148840
  H        45.6423562239       24.1610826612        4.8636772716
  H        46.6632049121       22.2900931542        6.1719063396
  H        47.6300431094       23.5758601773        1.2461644751
  H        14.8727070915        8.5886894894        4.6085155762
  H        50.2874523961       22.7023495042       12.0605414342
  H        49.2696391003       24.5752865525       13.3605899431
  H        45.6112989846       24.1098505730       11.1456198265
  H        46.6532439523       22.2544407101        9.8313754321
  H        47.6081729402       23.5519165078       14.7968366897
  H        40.6312082944       17.0656099266       11.4069920484
  H        48.6870869463       14.0949424320        7.7999509867
  H        10.6812416935       12.4666993572       12.0931429929
  H        11.6893584090       10.5247483989       13.2968755971
  H        15.3933004480       11.1585030444       11.2052793539
  H        14.3650112974       13.0870226384        9.9900319671
  H        13.3754397548       11.6219768043       14.7529899508
  H        47.9302068941       14.2183990849        9.7108706724
  H        47.7800166072       14.3736795518        6.4952453988
  H        49.0829716062       18.5516527545       10.8671891542
  H        10.4162300945       14.1343993936        7.9988683334
  H        24.4817216664        3.0240542118        3.9170111593
  H        25.6251729994        4.8818193396        2.6905225302
  H        23.2587538317        7.7520730487        4.8489626454
  H        22.1333175853        5.8847099868        6.0770974712
  H        23.8159478609        5.7861219028        1.2666172924
  H        36.3539298194       32.1982022502        3.9936595349
  H        35.2009308857       30.3822609350        2.7279788955
  H        37.4626926350       27.4417702322        4.9049367744
  H        38.5954636735       29.2710889738        6.1808045202
  H        36.9737161591       29.4651298909        1.3077293280
  H        25.7497422898        8.5999282989        4.6527586367
  H        36.4534481860       32.2515589588       12.1099109327
  H        35.3338502768       30.4453724326       13.4126314605
  H        37.5328895191       27.4912364520       11.1883715062
  H        38.6263861982       29.3095054762        9.8720011155
  H        37.0107819829       29.4852906418       14.8603792127
  H        46.1101803533       26.5879230681       11.3855593471
  H        44.6684522485       35.1162502855        7.8139148034
  H        24.4361083119        3.0414426145       12.0873584471
  H        25.5655984786        4.8816542893       13.3385767148
  H        23.1631315071        7.7685218413       11.2434553357
  H        22.0455544115        5.9164870043        9.9915892227
  H        23.7905820565        5.7903133896       14.8181835885
  H        44.9542860286       34.3908112984        9.6954745440
  H        44.9023610965       34.2069536560        6.4906703212
  H        40.6667074862       33.2095186470       10.8534375278
  H        23.1504215388        1.9579719538        8.0054916511
  H        25.7883476357       19.6710130705        3.9336496491
  H        23.6237267232       19.7141357981        2.7029318328
  H        22.3500499886       16.1975101236        4.8274634845
  H        24.5230905209       16.1664055504        6.0578431683
  H        23.7308124588       17.7006226160        1.2493990292
  H        35.1590398399       15.4343789119        3.9998657382
  H        37.2772268365       15.3915672916        2.6827014083
  H        38.6958402771       18.8090441264        4.8767675952
  H        36.5726285240       18.8324928167        6.1977397221
  H        37.2231362707       17.3615780360        1.2417713926
  H        20.3363872490       17.9435320427        4.6501914320
  H        35.1448007481       15.4507104557       12.0922617526
  H        37.2810876738       15.3738432639       13.3794459651
  H        38.7367645130       18.7514410724       11.1480115710
  H        36.5995509461       18.8043392618        9.8522286650
  H        37.2302189602       17.3475605382       14.7920120963
  H        35.1431126438       26.6965780339       11.4146767010
  H        28.5044304054       21.0894046190        7.8541995626
  H        25.8407128276       19.6501578889       12.1838604455
  H        23.6486480363       19.7455774061       13.3745260535
  H        22.3397157486       16.2507591224       11.2365778088
  H        24.5315929233       16.1745638996       10.0430463843
  H        23.7298243250       17.7231716473       14.8026534058
  H        28.9752803874       21.7271940204        9.7694442791
  H        29.1950223293       21.7119549895        6.5412004625
  H        32.1804266850       18.5240294598       10.9279703702
  H        27.4066290579       19.0753031541        8.0196421222
  H        14.8671732769       19.6788066213       12.1113726602
  H        17.0374711995       19.7535556717       13.3340704202
  H        18.3401414660       16.2392860685       11.2244639460
  H        16.1654091247       16.1798673898       10.0012849622
  H        16.9473064880       17.7429739052       14.7976160798
  H        46.0859039436       15.4280485156       12.0524416323
  H        43.9577107580       15.3587186182       13.3529115364
  H        42.5398402523       18.7987696523       11.1944051425
  H        44.6685153803       18.8428690471        9.8830070272
  H        44.0155335918       17.3069261282       14.8129664435
  H        20.3448547577       18.0098527145       11.3997685250
  H        46.0463539852       15.3897825618        4.0277024802
  H        43.9187212839       15.3265016964        2.7277755903
  H        42.5240179189       18.7943068927        4.8560390324
  H        44.6576914388       18.8429342310        6.1580700028
  H        44.0077549435       17.2982969460        1.2623940965
  H        46.1995103482       26.6825794523        4.6233672892
  H        52.7411472920       21.0625787006        8.1947815306
  H        14.8784662442       19.6721496973        3.8942662260
  H        17.0721525339       19.7422202197        2.7032069396
  H        18.3154045178       16.1957873579        4.7944170724
  H        16.1243560559       16.1504600859        5.9966651486
  H        16.9483276937       17.7277625887        1.2446802947
  H        52.3223490139       21.6729724792        6.2941615191
  H        52.0127234550       21.7015133885        9.4956965441
  H        49.0681189248       18.6078491028        5.2040737085
  H        13.2478232147       19.0163682894        7.9750997849
  H        29.9243337723       12.4933596365       12.2805194657
  H        28.8565338961       10.5616953443       13.4504879139
  H        25.2595501795       11.1738576586       11.1733016549
  H        26.3488660190       13.0904077128        9.9923028560
  H        27.1335425729       11.6888227288       14.7988816673
  H        30.9556331943       22.8270311305       12.0074791040
  H        31.9626748232       24.7062552897       13.2953624543
  H        35.6821085886       24.1308606579       11.2137827846
  H        34.6586716346       22.2485054744        9.9225112533
  H        33.6231053866       23.6079225667       14.7680918019
  H        25.7039905717        8.5974465719       11.4075873152
  H        30.8935482205       22.6722226401        3.9207072755
  H        31.8909375800       24.5599340130        2.6332551074
  H        35.5265069075       24.1742747918        4.9015660015
  H        34.5063414584       22.3002892105        6.2001048329
  H        33.5809404824       23.5908295520        1.2155198949
  H        40.6030009159       17.0873583559        4.6477780028
  H        32.5034941022       14.1510132181        8.2340003376
  H        29.8856808830       12.5474455197        3.8862460834
  H        28.8555708749       10.6453536470        2.6382339202
  H        25.2243757131       11.1462415750        4.8887082578
  H        26.2770632976       13.0324936142        6.1468008846
  H        27.1364069455       11.6980215133        1.2465300474
  H        33.3082435343       14.2250100818        6.4659911089
  H        33.4080163487       14.3911570928        9.5952332615
  H        32.1052111645       18.4244367920        5.0695936212
  H        30.1936104324       14.1542572049        8.0754807272
  H        16.1181211297        2.9633616583       12.1294533995
  H        14.9529797846        4.8204798944       13.3222100033
  H        17.3668073599        7.6859334694       11.2106552714
  H        18.5155014578        5.8184125895       10.0108809057
  H        16.7537740494        5.7397768383       14.7714923656
  H        44.8275548047       32.1404824709       11.9775079843
  H        45.9371406035       30.3418101957       13.3068718619
  H        43.6840108594       27.3781288173       11.1515990361
  H        42.6010337249       29.1898849363        9.8089690910
  H        44.2308661531       29.4368690189       14.7689278598
  H        14.8511385779        8.5461425776       11.3632597025
  H        44.8998110610       32.2340636073        3.9317189219
  H        46.0248087476       30.4130993170        2.6522909289
  H        43.7640462488       27.4840282695        4.8457170743
  H        42.6461462029       29.3176931265        6.1247563434
  H        44.2688947464       29.4705562079        1.2181895130
  H        34.9959753217       26.6405985943        4.6555656237
  H        36.6053622044       35.1342362973        8.1804798405
  H        16.1433735156        3.0132305799        3.9043510790
  H        14.9739461672        4.8567142464        2.6886247408
  H        17.3970692135        7.7473489789        4.7545695062
  H        18.5439868541        5.8933825600        5.9821401624
  H        16.7650022209        5.7558156317        1.2192567701
  H        36.2789737922       34.4824353749        6.2732448519
  H        36.3813377795       34.2088690083        9.4991531919
  H        40.5793545000       33.2019277651        5.1540970119
  H        17.4709203771        1.9474171273        7.9741690552
  H        29.1395154327       19.1924788593       12.8936711496
  H        28.7498127967       18.8525256028        3.6744501706
  H        31.6138500514       15.6964730321        3.5037974397
  H        31.3468088440       15.5338810559       12.4464872673
  H        28.0886858935       17.8418475026       14.5003757299
  H        29.2354451393       15.2902922381       14.3487897246
  H        32.3289302657       17.2457959466        1.1981709748
  H        18.8538449426        0.8691221786       12.3352015082
  H        40.5281595978       35.2288041903        3.9520578193
  H        42.3241431504       34.4190114036        3.5902403487
  H        22.0877076020        0.6924451848       12.3514436382
  H        11.5971084167       18.7128585402       12.3828292239
  H        52.2655225862       18.4315316198        3.6778651034
  H        49.2551012996       16.4769789515        3.5848177352
  H        10.1509047518       15.7980809250       12.2925200483
  H        50.8505806588       17.6925413635        3.9541280028
  H        10.0463927667       17.3943580246       12.0520329654
  H        20.2153106655        0.0024310027       12.0418859685
  H        39.1838620174       36.1243848081        3.6863077921
 Ni        30.4831297308       17.5916872852        2.5858039171
 Ni        30.8213697159       16.1761947007       -0.1669662279
 Ni        29.7100860984       18.1917842257        0.1731207327
 Ni        30.1001045171       17.2305527211       13.2394747281
  O        10.6500076223       14.3651240078        5.4859259508
  O        12.6132669657       14.6576570747        6.5840188373
  O        49.1478916195       16.8459167452        7.9898234441
  O        50.3503375944       20.9356223887        5.6481353966
  O        48.3485873571       20.5932467712        6.6659900826
  O        11.0522530439       17.0534030501        6.5008933337
  O        50.3213414962       20.8815964418       10.4068106508
  O        48.3468677310       20.5867257454        9.3271875923
  O        49.5438175778       18.2483697833       10.0682904695
  O        12.3594410818       18.6245125849        7.9999609803
  O        48.6932516238       14.1486362292        6.7512728851
  O         8.2099208730       14.2104336145        9.3225521034
  O        10.7354931204       14.5067915163       10.6642951515
  O        12.5719696591       14.5830011555        9.3285067098
  O        22.8442552924        2.0420721713        5.4875078561
  O        21.6054758961        3.5919532637        6.5896780235
  O        42.0581544467       34.1373241074        7.9790376675
  O        37.9812592184       33.1382275300        5.5729538326
  O        39.2172980337       31.5755615537        6.6660293444
  O        20.3084333371        1.0395248648        6.5021618778
  O        38.0244228735       33.1854668351       10.4155125735
  O        39.2180522572       31.5827142155        9.3280022241
  O        40.6522771881       33.7692641367       10.0601799770
  O        18.2555053303        1.3761087621        7.9968090392
  O        44.6222458834       35.1005057627        6.7587782836
  O        24.2053997258        0.0000118799        9.3207702724
  O        22.7529798288        2.0578126211       10.5838002977
  O        21.6243633552        3.5959315193        9.3425363841
  O        27.4844655017       18.7476950817        5.4874080065
  O        26.7595240955       16.9321442312        6.6497230063
  O        30.6620420962       19.4047071146        7.9989243135
  O        33.5898657977       16.2724851551        5.6679655337
  O        34.2743662214       18.1655455473        6.7324459845
  O        29.5786124868       17.0496864335        6.5773568421
  O        33.5567503682       16.3400133195       10.4089266053
  O        34.2930701558       18.2459677016        9.4043636868
  O        31.6431777240       18.3151375486       10.1479444121
  O        30.2974719334       15.1193198680        8.0815091141
  O        28.5527586907       21.0326351632        6.8182805097
  O        28.5149790697       20.9529183597        9.4051843660
  O        27.5756955946       18.6129226044       10.6670704069
  O        26.7012612328       16.9307091514        9.4061823606
  O        13.1511951304       18.6926576102       10.5880886790
  O        13.9222931666       16.9170337028        9.4069483933
  O        50.5961580852       19.3500833743        8.0211943266
  O        47.6829331520       16.3269621363       10.4171759894
  O        46.9506542439       18.1756283322        9.3252714186
  O        11.0700886859       17.0153501600        9.4895842762
  O        47.6759056388       16.3358705446        5.6528168830
  O        46.9259955508       18.2357969763        6.6636177828
  O        49.5687663041       18.3176634640        5.9825593784
  O        10.3188579294       15.1002512406        7.9971234518
  O        52.6707893246       21.0278279203        9.2418772950
  O        12.1468378407       20.8909985371        6.6732331253
  O        13.1082398619       18.6135024266        5.3252618061
  O        13.9582238247       16.9872075053        6.6643078647
  O        29.9910304763       14.4390764869       10.7273698281
  O        28.0866032858       14.6542780094        9.4957569479
  O        32.0750052975       16.8674210189        8.0566328372
  O        30.9816691211       20.8794941249       10.5021500109
  O        32.9132227732       20.6532285180        9.3234372733
  O        29.5641935734       17.0777728872        9.5665780012
  O        30.8532275490       20.8811848186        5.6467444836
  O        32.8700587654       20.5843708143        6.6620991125
  O        31.6756282386       18.2495957608        5.9245286636
  O        28.2930434610       18.6783105234        8.0069617503
  O        32.4898827294       14.2122900590        9.3223680506
  O        32.4042241644       14.2172166258        6.8230686753
  O        29.9171604415       14.4353984214        5.4858956055
  O        28.0380227975       14.5865321629        6.7472886879
  O        17.8891659157        1.9665847432       10.6627774548
  O        18.9561781714        3.5271321992        9.4079793270
  O        39.1685770119       34.1386606437        7.9972011386
  O        43.2801737485       33.0589374289       10.3317243734
  O        42.0343988987       31.5064657742        9.2416502556
  O        20.3176556299        1.0367319117        9.4801094264
  O        43.2760722103       33.1825353031        5.5748880423
  O        42.0052136262       31.5841058870        6.5829954791
  O        40.5789748010       33.7748995516        5.9359995169
  O        22.3673945879        1.3845935891        7.9980060067
  O        36.6727771742       35.0997494050        9.2332510833
  O        16.4456258616        0.0644105966        6.6683754780
  O        17.9365113171        2.0434216687        5.3263712747
  O        18.9190161581        3.5931359556        6.6659418001
  O        29.6553236177       18.6894325092        3.9933784287
  O        29.8273489845       19.1242054112       12.1641577436
  O        31.3028377339       16.4163446801        4.0813044682
  O        31.3060218747       16.4043179562       12.0023917237
  O        31.6068507501       16.6240234598        1.4151630864
  O        30.1536457780       15.6062255082       14.2416905888
  O        28.9681284779       18.2465033515       14.3873603288
  O        39.4567893001       35.2437185544        4.0019625104
  O        19.1417520354        0.0046334821       11.9904976257
  O        41.9695293559       35.1726582587        4.0870411172
  O        21.6913744561       -0.0691309531       11.8959431090
  O        51.3654683992       18.6143475086        4.0055790105
  O        10.7514733943       18.7471658817       11.9049522018
  O        50.0796815063       16.4128043379        4.0918614414
  O         9.5249464289       16.4829400964       11.9911812359
 Zr         9.2970798284       16.0526506453        6.1824679922
 Zr        49.8364761423       16.0066688382        9.7464520944
 Zr        22.0735436702        0.0301771664        6.1887760593
 Zr        42.4612154659       35.1540453296        9.8010333259
 Zr        29.5959431005       19.0479500861        6.1650469526
 Zr        29.5921498644       19.1780991835        9.7340399042
 Zr        11.0388554787       19.0515019405        9.8281886411
 Zr        11.0439225774       19.1544902419        6.2515979689
 Zr        31.3355582991       16.0827008313        9.8571298841
 Zr        31.3737817332       16.0027624928        6.2162675931
 Zr        18.6014008406       -0.0009652721        9.7633584758
 Zr        18.5069636645       -0.0070132926        6.2137014923
 Zr        12.3032802648       16.3236983218        7.9909610088
 Zr        48.6161890294       18.8329033997        8.0105066466
 Zr        20.3156088704        2.4740797807        7.9905363781
 Zr        40.6437064581       32.6875426735        7.9782163661
 Zr        28.3479848003       16.3156473347        8.0669296980
 Zr        32.6292484371       18.8181741601        8.0184277317
  H        29.2479732193       17.8301964986        1.5918611970
  H        30.4976318283       19.8162109583       12.3433749558
  H        29.2662129991       19.5270895624        0.5967804318
