     566
 i =      114, E =     -4712.2685570894
  C        11.8583709023       14.0534851509        5.7415807951
  C        12.4557801601       12.8904283855        5.0233300757
  C        11.7041903766       12.1717717316        4.0813771462
  C        12.2804941097       11.1095001680        3.3890505146
  C        13.6209362446       10.7393504699        3.6170357732
  C        14.3539765958       11.4426313887        4.5908225082
  C        13.7811518998       12.5076495106        5.2823247691
  C        14.2604776754        9.6486642039        2.8436503856
  C        14.2558648261        9.6565785099        1.4219395638
  C        13.7427874666       10.7587222173        0.6680016208
  C        49.1264699138       21.2333627699        5.8797533400
  C        48.5496180005       22.4011851266        5.1527049403
  C        49.2997026534       23.0685942344        4.1717806935
  C        48.7327424849       24.1076704236        3.4385413525
  C        47.4021329819       24.5091909110        3.6670114468
  C        46.6711258965       23.8602030448        4.6804196857
  C        47.2335763041       22.8153330551        5.4098275835
  C        46.7719326002       25.5868765755        2.8696931268
  C        46.7611163652       25.5573165732        1.4479275310
  C        47.2611407737       24.4422626904        0.7044370397
  C        14.8598275122        8.5702316890        0.7086903796
  C        14.8912157124        8.5966827752        3.5203094966
  C        49.1128636319       21.2034070111       10.1452317720
  C        48.5274461023       22.3647250578       10.8723127261
  C        49.2666914731       23.0255010375       11.8651957172
  C        48.6903449555       24.0600286517       12.5966620523
  C        47.3598807759       24.4567144367       12.3585201821
  C        46.6394333008       23.8117079505       11.3350744333
  C        47.2129941962       22.7758171858       10.6032666062
  C        46.7214573085       25.5316822899       13.1495686316
  C        46.7333382894       25.5281089446       14.5712744194
  C        47.2488686680       24.4289515511       15.3276731632
  C        40.6072380712       17.0601166102       15.3256692946
  C        40.6345235441       17.1060304392       12.5153312829
  C        11.8827795426       14.0864527849       10.2854883862
  C        12.4719536827       12.9104527666       10.9895618236
  C        11.7145452458       12.1775626007       11.9160162318
  C        12.2810647082       11.0950703558       12.5844473643
  C        13.6197369577       10.7209407382       12.3523430837
  C        14.3575141654       11.4360991702       11.3910691545
  C        13.7921665689       12.5173008440       10.7183543654
  C        14.2533808112        9.6242363541       13.1228145159
  C        14.2521158977        9.6442283907       14.5446674264
  C        13.7422745320       10.7531898511       15.2917448152
  C        22.5196028562        3.2472737291        5.7562017124
  C        23.2505787050        4.3516871062        5.0669334881
  C        24.2567392477        4.0671191879        4.1312009432
  C        24.8998954042        5.1027550568        3.4569897764
  C        24.5548544093        6.4480680845        3.6966092282
  C        23.5779594273        6.7242405291        4.6709300451
  C        22.9300306804        5.6900864685        5.3438756628
  C        25.1698946418        7.5500940891        2.9169585735
  C        25.1256350122        7.5429583350        1.4951334049
  C        24.4079745207        6.5478775944        0.7577856417
  C        38.2973767239       31.9265515884        5.8520984657
  C        37.5551919464       30.8364907886        5.1529138933
  C        36.5873290046       31.1408790808        4.1829306629
  C        35.9572554272       30.1214670944        3.4737891199
  C        36.2793349467       28.7703122464        3.7100969221
  C        37.2157555870       28.4734332475        4.7186960260
  C        37.8495796492       29.4917242587        5.4275700392
  C        35.6728659451       27.6801885879        2.9097012398
  C        35.7145649666       27.6964115215        1.4877177193
  C        36.4224721964       28.7015107997        0.7557555234
  C        25.7458759461        8.6090203299        0.7666066614
  C        25.7849991182        8.6213579137        3.5788205217
  C        38.3305453962       31.9603640341       10.1610143331
  C        37.6149644584       30.8873374387       10.9115153803
  C        36.6818542523       31.1965121403       11.9134535929
  C        36.0727919033       30.1795592156       12.6470019630
  C        36.3815159174       28.8259013795       12.4036662937
  C        37.2958184361       28.5267197694       11.3745636884
  C        37.9065058595       29.5400999885       10.6419177651
  C        35.7677742317       27.7263819436       13.1854922496
  C        35.7623375997       27.7205781103       14.6083890071
  C        36.4440411005       28.7140990753       15.3790558565
  C        46.1353257917       26.6207447740       15.2814092487
  C        46.0873898564       26.5799740535       12.4735148354
  C        22.4585561103        3.2558975590       10.2616579807
  C        23.1471980974        4.3630381854       10.9933096265
  C        24.1410195597        4.0736102563       11.9420492405
  C        24.7667654258        5.1009266663       12.6443846112
  C        24.4196834946        6.4484993888       12.4207767421
  C        23.4467668648        6.7309582905       11.4428761354
  C        22.8162128476        5.7038098958       10.7411674953
  C        25.0577750367        7.5451005700       13.1917965450
  C        25.0677197427        7.5400413602       14.6151062931
  C        24.3786523534        6.5474776277       15.3811928383
  C        26.5675882457       17.8262192380        5.7869225331
  C        25.2659325456       17.8919600422        5.0620634956
  C        25.0195786438       18.8998347047        4.1167448508
  C        23.8106028202       18.9332724349        3.4258458330
  C        22.8165774321       17.9615607739        3.6580232067
  C        23.0586186058       16.9777241562        4.6350028681
  C        24.2680179360       16.9399707066        5.3253193014
  C        21.5504378100       17.9570192626        2.8865154890
  C        21.5586022203       17.9497593024        1.4644630947
  C        22.7683121845       17.8338040599        0.7095515931
  C        34.3697392623       17.1615279925        5.8959345754
  C        35.6573868014       17.1000421712        5.1462832776
  C        35.8629742218       16.1340212329        4.1483495143
  C        37.0544607715       16.1089702280        3.4264201156
  C        38.0748402725       17.0484488023        3.6777950390
  C        37.8692772439       17.9953583483        4.7003339188
  C        36.6773794684       18.0253937886        5.4209311162
  C        39.3379502166       17.0531521370        2.8995665519
  C        39.3409375343       17.0666617249        1.4764989973
  C        38.1371793922       17.1858430222        0.7127969560
  C        20.3152389572       17.9712084718        0.7512699744
  C        20.3241120547       17.9499354503        3.5642074797
  C        34.4376958190       17.2412069607       10.1878522888
  C        35.7406660603       17.1403142800       10.9092862901
  C        35.9504737530       16.1504842111       11.8814312604
  C        37.1411912346       16.1148675688       12.6033209280
  C        38.1524987837       17.0693378550       12.3765749594
  C        37.9490818200       18.0329205986       11.3705794385
  C        36.7581882023       18.0722971444       10.6502985872
  C        39.3999901402       17.0808597343       13.1751629690
  C        39.3724129658       17.0814939622       14.5971868631
  C        38.1522174698       17.1910813743       15.3359829736
  C        35.1287694946       26.6392691454       15.3074719638
  C        35.1855021714       26.6537535175       12.4972614984
  C        26.5708683976       17.8340899844       10.3273259548
  C        25.2561661694       17.8896916751       11.0287098695
  C        24.9946332504       18.9043647583       11.9619832413
  C        23.7765823581       18.9390209261       12.6344783383
  C        22.7919502788       17.9596114577       12.3959394870
  C        23.0475410785       16.9707652199       11.4288714677
  C        24.2662091516       16.9336370253       10.7548039127
  C        21.5271506898       17.9489345809       13.1656467331
  C        21.5460765996       17.9445300990       14.5869132963
  C        22.7619330514       17.8315200718       15.3331934502
  C        14.0460856055       17.8324920532       10.2844182465
  C        15.3528429504       17.8996259900       11.0020411188
  C        15.6099666429       18.9155400089       11.9355766825
  C        16.8205603427       18.9463920333       12.6241971884
  C        17.8059576253       17.9640262756       12.4007562048
  C        17.5545737624       16.9731978744       11.4333443886
  C        16.3434615514       16.9381168963       10.7457574513
  C        19.0724932255       17.9542511712       13.1717365046
  C        19.0647888262       17.9546448773       14.5936900213
  C        17.8540867265       17.8552162572       15.3489695255
  C        46.8016592325       17.2185815201       10.1614568912
  C        45.5113178634       17.1527594229       10.9108480219
  C        45.3112787291       16.1745186248       11.8978850116
  C        44.1299850918       16.1470920920       12.6355799648
  C        43.1145374997       17.0976239351       12.4103922985
  C        43.3128676983       18.0569049643       11.3980380618
  C        44.4951352780       18.0882630382       10.6611235246
  C        41.8577527209       17.0949992235       13.1976307715
  C        41.8569740567       17.0847324252       14.6208160303
  C        43.0614987006       17.1825201587       15.3861804198
  C        20.3083854194       17.9676048836       15.3067444860
  C        20.2983093926       17.9337338646       12.4940044458
  C        46.7779195227       17.2288070509        5.8889543190
  C        45.4681340119       17.1129046450        5.1796390526
  C        45.2474758120       16.1079726621        4.2245707501
  C        44.0541279756       16.0676559388        3.5058647860
  C        43.0462765142       17.0285212006        3.7222764721
  C        43.2571725989       18.0026056723        4.7168695371
  C        44.4521814098       18.0495051359        5.4306926027
  C        41.7968093146       17.0391505560        2.9234480977
  C        41.8257759490       17.0546701308        1.5010292990
  C        43.0466194531       17.1658512799        0.7631132540
  C        46.1531025379       26.6371868693        0.7261660743
  C        46.1619010696       26.6559566849        3.5358142202
  C        14.0406747252       17.8300260300        5.7068894986
  C        15.3555157242       17.9035792744        5.0081210055
  C        15.6233103610       18.9278516517        4.0878851787
  C        16.8476502050       18.9697737279        3.4258798606
  C        17.8292057535       17.9863818502        3.6595799922
  C        17.5670264535       16.9881201074        4.6151064546
  C        16.3448897173       16.9460569570        5.2811886736
  C        19.0957249272       17.9725541108        2.8920621107
  C        19.0771517192       17.9634001706        1.4708492480
  C        17.8601694011       17.8591626228        0.7253033476
  C        28.8017430521       14.0856317118       10.3997322238
  C        28.1948891990       12.9052374408       11.0770624830
  C        28.9239265670       12.1555164833       12.0122441795
  C        28.3265260869       11.0794274802       12.6631415411
  C        26.9856688577       10.7293420870       12.4047112446
  C        26.2792160596       11.4569995708       11.4300459368
  C        26.8744636123       12.5330009801       10.7765311488
  C        26.3188846598        9.6529501715       13.1730890990
  C        26.3242603336        9.6798488394       14.5944130385
  C        26.8400838105       10.7916594868       15.3330659833
  C        32.1796518710       21.2399454271       10.1472138487
  C        32.7785244137       22.4009875481       10.8678033066
  C        32.0316572300       23.0803028174       11.8431824098
  C        32.6037806700       24.1185248569       12.5718017107
  C        33.9388663567       24.5077553322       12.3473398656
  C        34.6680019970       23.8474601352       11.3400189438
  C        34.0986812147       22.8031458696       10.6130883156
  C        34.5661185407       25.5826660354       13.1513721828
  C        34.5477710082       25.5534038051       14.5735168646
  C        34.0410223434       24.4345889148       15.3072002645
  C        25.7198231250        8.6044424166       15.3214527616
  C        25.6697256743        8.6048239388       12.5079656125
  C        32.0816612642       21.1814739671        5.8688996490
  C        32.6575438795       22.3399046002        5.1262750846
  C        31.9360000439       22.9664425402        4.0983728403
  C        32.5079727758       24.0107302550        3.3737705665
  C        33.8162207362       24.4558177661        3.6525105360
  C        34.5186159853       23.8391051713        4.7063770296
  C        33.9515359913       22.7931651142        5.4290745982
  C        34.4573612191       25.5431958239        2.8748982029
  C        34.4924312188       25.5331001825        1.4520924906
  C        34.0148596855       24.4246947988        0.6838906008
  C        40.5909708730       17.0484883871        0.7718313393
  C        40.5612833568       17.0560174428        3.5830728812
  C        28.7785343540       14.1085652797        5.8002117303
  C        28.1937398648       12.9568208097        5.0505745525
  C        28.9321151950       12.2655054387        4.0775946338
  C        28.3617721285       11.1924648174        3.3934310555
  C        27.0381852063       10.7818891530        3.6553231731
  C        26.3184258883       11.4625231844        4.6556238109
  C        26.8851347028       12.5345118684        5.3403644236
  C        26.3952206393        9.6817949017        2.8934107587
  C        26.3651477899        9.6939565673        1.4712928890
  C        26.8572327609       10.7998425004        0.7089750321
  C        18.1355695645        3.1808277580       10.3170273311
  C        17.4062269966        4.2781105714       11.0156845424
  C        16.3903452030        3.9996739807       11.9429996253
  C        15.7425261641        5.0395804786       12.6065450568
  C        16.0944920456        6.3833254238       12.3671030508
  C        17.0840568139        6.6529408439       11.4035437921
  C        17.7332373025        5.6156625172       10.7384461319
  C        15.4699985497        7.4909591847       13.1301620459
  C        15.4851572962        7.4902477879       14.5518876991
  C        16.1866016141        6.4965861133       15.3051009719
  C        42.9457204605       31.8594831775       10.0727988166
  C        43.6459845698       30.7717800664       10.8167774967
  C        44.5916870641       31.0930427047       11.8027012724
  C        45.1973314642       30.0874565757       12.5503535585
  C        44.8706718745       28.7344301799       12.3356212545
  C        43.9446530121       28.4201496712       11.3225729877
  C        43.3359016430       29.4253283269       10.5745295993
  C        45.4882637429       27.6551298359       13.1388030543
  C        45.4925505926       27.6808323170       14.5604931163
  C        44.8055160882       28.6889243436       15.3071046968
  C        14.8561230045        8.5627183995       15.2642401609
  C        14.8746711152        8.5627017601       12.4515643575
  C        42.9462966404       31.9615662085        5.8089440181
  C        43.6914250542       30.8854140872        5.0953998938
  C        44.6563411226       31.1912611356        4.1233959025
  C        45.2778118654       30.1716608254        3.4056447427
  C        44.9536269671       28.8213870358        3.6429695384
  C        44.0197141648       28.5237416133        4.6533438528
  C        43.3915095857       29.5405412735        5.3655271779
  C        45.5627026944       27.7239854613        2.8577384092
  C        45.5331060537       27.7173334548        1.4364435651
  C        44.8268153067       28.7075847998        0.6834952514
  C        35.1023469348       26.6280013178        0.7532778549
  C        35.0601077111       26.6046759801        3.5636226377
  C        18.1486543520        3.2468018927        5.7066956511
  C        17.4298004152        4.3436477973        4.9975777755
  C        16.4145946896        4.0522682687        4.0740269298
  C        15.7661566252        5.0828074667        3.3985993138
  C        16.1206647344        6.4280957883        3.6212812564
  C        17.1119788465        6.7115952271        4.5785799488
  C        17.7597836720        5.6827636765        5.2583725703
  C        15.4901077259        7.5237471080        2.8487656740
  C        15.4960220739        7.5071231380        1.4276146754
  C        16.1927436710        6.5053874527        0.6809205128
  H        10.6721550443       12.4661047569        3.9041391122
  H        11.6942274999       10.5511969418        2.6623553599
  H        15.3908810104       11.1677421710        4.7728357834
  H        14.3505124071       13.0705681405        6.0180762585
  H        13.3757972707       11.6308749981        1.2012803658
  H        50.3224688744       22.7486956512        3.9871421815
  H        49.3192518889       24.6230191256        2.6810400936
  H        45.6415670669       24.1608331366        4.8634576678
  H        46.6624607818       22.2900089484        6.1717892015
  H        47.6296985987       23.5758897025        1.2461146644
  H        14.8715038149        8.5879037492        4.6086168201
  H        50.2867811801       22.7027596685       12.0600388464
  H        49.2687684097       24.5755721192       13.3600821654
  H        45.6099957113       24.1088752393       11.1460675933
  H        46.6520951959       22.2536124584        9.8317834361
  H        47.6076789962       23.5518296759       14.7968027766
  H        40.6445586943       17.0817629640       11.4272551595
  H        48.6867928842       14.0952670699        7.7998601460
  H        10.6811863624       12.4668704159       12.0936922005
  H        11.6893143646       10.5249190057       13.2973734370
  H        15.3928051649       11.1579087774       11.2048074905
  H        14.3644174478       13.0863531327        9.9895059562
  H        13.3755012164       11.6218284980       14.7531125568
  H        47.9300072401       14.2182236001        9.7109295131
  H        47.7798434160       14.3738287661        6.4949147363
  H        49.0824822197       18.5521761475       10.8670275015
  H        10.4155328292       14.1344524148        7.9986973570
  H        24.5122060080        3.0270810702        3.9406102734
  H        25.6775071546        4.8783394132        2.7299758432
  H        23.3019542151        7.7587516162        4.8646373390
  H        22.1538163852        5.8974568526        6.0766236528
  H        23.8497989383        5.7940893668        1.3053716995
  H        36.3535439921       32.1844464626        3.9857041100
  H        35.2081533002       30.3635953251        2.7230526240
  H        37.4730432295       27.4337954696        4.9108024013
  H        38.5980502451       29.2675183294        6.1840036456
  H        36.9800043758       29.4536404190        1.3062473454
  H        25.8310546079        8.6055855267        4.6663458454
  H        36.4527501680       32.2406838453       12.1141995561
  H        35.3424692318       30.4272076895       13.4141965667
  H        37.5486455408       27.4866374514       11.1793852771
  H        38.6326160161       29.3116340460        9.8654939253
  H        37.0190680110       29.4753602559       14.8596471557
  H        46.1086405972       26.5873040056       11.3854753487
  H        44.6681458804       35.1160701181        7.8139209082
  H        24.4153394312        3.0345501994       12.1096347565
  H        25.5427768693        4.8682353562       13.3704608815
  H        23.1659126315        7.7663775573       11.2610242736
  H        22.0503633234        5.9202674950        9.9998833804
  H        23.7969348886        5.7941467041       14.8577797370
  H        44.9535494240       34.3903147004        9.6950905023
  H        44.9009055448       34.2064830692        6.4906394815
  H        40.6659470850       33.2090572250       10.8530371643
  H        23.1510122499        1.9576492693        8.0068147720
  H        25.7850341726       19.6521755883        3.9401096283
  H        23.6209845591       19.7200709411        2.6988813672
  H        22.3002999428       16.2199995606        4.8212618924
  H        24.4685476373       16.1677683767        6.0642083877
  H        23.7072517015       17.7126330923        1.2420321608
  H        35.0742731461       15.4137460600        3.9439679284
  H        37.2089210223       15.3502798638        2.6623161715
  H        38.6445350768       18.7317759930        4.9017122129
  H        36.5086091675       18.7714084609        6.1940283898
  H        37.1943127287       17.3068128034        1.2384724677
  H        20.3262979403       17.9781016705        4.6523839218
  H        35.1623466300       15.4255738842       12.0712800591
  H        37.2994312601       15.3435551832       13.3539238970
  H        38.7213089996       18.7774584960       11.1883256519
  H        36.5833074310       18.8353589827        9.8956750477
  H        37.2209894498       17.3149730966       14.7907174321
  H        35.1671707505       26.6800283068       11.4093436452
  H        28.5090287459       21.0766876267        7.8756679921
  H        25.7580547728       19.6584389118       12.1400202791
  H        23.5721366713       19.7294249042       13.3534769891
  H        22.2942292587       16.2087952801       11.2396283589
  H        24.4799788521       16.1587716832       10.0225570673
  H        23.6960272373       17.7090805309       14.7931091036
  H        29.0068943110       21.7216871295        9.7413539994
  H        29.1867505840       21.7089232606        6.5453162640
  H        32.0431539604       18.5917773145       11.0021183099
  H        27.3933948573       19.0637650005        8.0752248423
  H        14.8502351668       19.6749134864       12.1063795540
  H        17.0177339629       19.7387664813       13.3430753830
  H        18.3066477467       16.2078405104       11.2529894987
  H        16.1355795947       16.1603979197       10.0147428689
  H        16.9139115171       17.7420405431       14.8171642797
  H        46.0988123883       15.4470296384       12.0801513020
  H        43.9789168865       15.3783408821       13.3902766079
  H        42.5396439445       18.8008549933       11.2174608275
  H        44.6599872610       18.8438926336        9.8964354032
  H        44.0051393308       17.3040439112       14.8619046705
  H        20.2961754134       17.9584633070       11.4057519706
  H        46.0276510316       15.3716149974        4.0451485223
  H        43.8913424467       15.2869596022        2.7658950506
  H        42.4874025136       18.7508857915        4.8943248371
  H        44.6311087825       18.8224785275        6.1742669374
  H        43.9789818989       17.2735068158        1.3098113346
  H        46.1985465896       26.6824335401        4.6232667928
  H        52.7411375490       21.0627064652        8.1946222776
  H        14.8626264663       19.6847038977        3.9099744701
  H        17.0574745862       19.7673857156        2.7164687380
  H        18.3177586730       16.2226097056        4.8001177138
  H        16.1254986961       16.1647680717        6.0048374685
  H        16.9245275481       17.7491117052        1.2653426949
  H        52.3225249858       21.6736259977        6.2946596241
  H        52.0135376137       21.7025404099        9.4955151691
  H        49.0656467865       18.6070145140        5.2045358910
  H        13.2467426857       19.0167022198        7.9760776681
  H        29.9555402289       12.4320486364       12.2174414001
  H        28.8928455088       10.4986213406       13.3879355571
  H        25.2434515637       11.1964159425       11.2222126111
  H        26.3250716132       13.1172820926       10.0424818317
  H        27.1962857738       11.6607091587       14.7881969235
  H        31.0060311521       22.7695541667       12.0263550570
  H        32.0187282650       24.6423393965       13.3245403657
  H        35.7012123365       24.1371875374       11.1597140879
  H        34.6692239384       22.2696316260        9.8563508525
  H        33.6977785992       23.5621672813       14.7585166755
  H        25.6873107182        8.5843279295       11.4197168992
  H        30.9335994316       22.6107369555        3.8699022618
  H        31.9390424580       24.4972862179        2.5845655513
  H        35.5317468341       24.1673958709        4.9290398640
  H        34.5028169141       22.2983291009        6.2250385564
  H        33.6523175945       23.5438219503        1.2060806483
  H        40.5507907291       17.0203780662        4.6709229071
  H        32.5139531060       14.1222621549        8.3632670738
  H        29.9538708057       12.5785040054        3.8741744209
  H        28.9440569891       10.6545505386        2.6483604189
  H        25.2941099032       11.1622826024        4.8665850332
  H        26.3229063791       13.0718110530        6.1000001667
  H        27.2248995355       11.6758316476        1.2353358454
  H        33.2929498157       14.1898450821        6.4565874151
  H        33.4019963381       14.4550857309        9.6684108085
  H        31.9776568141       18.4104463957        5.0066637324
  H        30.2030330771       14.1415111073        8.1337754984
  H        16.1182035179        2.9631528422       12.1292028011
  H        14.9529170974        4.8200825596       13.3219981936
  H        17.3665213883        7.6858385302       11.2105936749
  H        18.5153770377        5.8183764896       10.0107217232
  H        16.7530903869        5.7391796214       14.7716196218
  H        44.8281278032       32.1401019470       11.9767937647
  H        45.9373153742       30.3411362512       13.3062051389
  H        43.6817235032       27.3781168925       11.1525989026
  H        42.5991485985       29.1900306174        9.8099818329
  H        44.2301111187       29.4366480383       14.7687928946
  H        14.8509451345        8.5458943869       11.3633430753
  H        44.9001961861       32.2339159264        3.9322090336
  H        46.0249676899       30.4128244551        2.6526351471
  H        43.7623164711       27.4840563098        4.8445632467
  H        42.6446432809       29.3177591969        6.1236168975
  H        44.2682860916       29.4704530365        1.2180863998
  H        35.0073658953       26.6177848106        4.6506885007
  H        36.6051636231       35.1339042735        8.1808327703
  H        16.1436039905        3.0126608240        3.9043249467
  H        14.9738344652        4.8558205506        2.6885519890
  H        17.3953462889        7.7470985566        4.7554937311
  H        18.5426304687        5.8933157971        5.9831392585
  H        16.7640452710        5.7550597072        1.2193783130
  H        36.2788185932       34.4820617969        6.2732276762
  H        36.3810340241       34.2089913791        9.4997840367
  H        40.5786768769       33.2019761355        5.1540631054
  H        17.4714589136        1.9468690267        7.9740120503
  H        29.3057594593       19.5077865660       12.6023104517
  H        28.7830553056       18.7013599604        3.7117136411
  H        31.2700193998       15.6503682885       12.6022453416
  H        28.1350364151       18.0907449336       14.4166698975
  H        29.5320421179       15.7401689806       14.8352511026
  H        32.7414072876       18.3070881760        1.1523034855
  H        18.8530449815        0.8688293286       12.3353318061
  H        40.5277525168       35.2291713147        3.9520506138
  H        42.3239402614       34.4186657359        3.5909500698
  H        22.0877043834        0.6921113218       12.3510739478
  H        11.5967924422       18.7126067743       12.3822954937
  H        52.2648517178       18.4311421872        3.6778969523
  H        49.2550930887       16.4763966928        3.5839988293
  H        10.1501352812       15.7982545759       12.2925446194
  H        50.8498672621       17.6928367676        3.9539894337
  H        10.0459172083       17.3947381554       12.0519025061
  H        20.2144092004        0.0021741990       12.0420448831
  H        39.1834058749       36.1243590500        3.6863906820
 Ni        30.8630735546       18.3507181082        2.5844864063
 Ni        31.2058161467       16.8817788436       -0.0000233156
 Ni        29.4598584646       18.1858884459        0.4149730487
 Ni        30.1428068371       17.4984577113       13.3233281843
  O        10.6496318925       14.3652203753        5.4858026496
  O        12.6130055082       14.6574513515        6.5838277786
  O        49.1472883699       16.8459927563        7.9895532444
  O        50.3500206197       20.9362775218        5.6482587919
  O        48.3484168328       20.5931653252        6.6659933983
  O        11.0506880236       17.0540731737        6.5006323310
  O        50.3206728478       20.8816341871       10.4068297659
  O        48.3466055220       20.5865494997        9.3269536078
  O        49.5431361388       18.2484242123       10.0681817158
  O        12.3584872419       18.6245662296        7.9997269152
  O        48.6930685755       14.1488273969        6.7511690572
  O         8.2097304064       14.2105190480        9.3225851271
  O        10.7352423892       14.5068005390       10.6643325900
  O        12.5717475570       14.5827742993        9.3285456518
  O        22.8460877618        2.0450874072        5.4868521901
  O        21.6078770825        3.5942939599        6.5876050577
  O        42.0579484802       34.1372815517        7.9786421706
  O        37.9810897889       33.1354081210        5.5721711805
  O        39.2175147839       31.5751861116        6.6657713549
  O        20.3085234494        1.0399077666        6.5020303504
  O        38.0243102848       33.1847710271       10.4157622241
  O        39.2183369646       31.5829942160        9.3275448993
  O        40.6521204091       33.7692348149       10.0600463234
  O        18.2562010298        1.3757630589        7.9967524609
  O        44.6222016937       35.1005343862        6.7586903172
  O        24.2053192257        0.0000713444        9.3207373478
  O        22.7529441781        2.0574778665       10.5841788586
  O        21.6251415560        3.5968928457        9.3442257752
  O        27.4673564076       18.6898440380        5.4846858516
  O        26.6932784910       16.9178375823        6.6724567472
  O        30.6421458744       19.3426067847        8.0188272846
  O        33.4868240478       16.2612806342        5.6473582834
  O        34.2290467332       18.1030803132        6.7439772571
  O        29.5349560883       17.0046116529        6.5795696024
  O        33.5535089022       16.3406498681       10.4182357781
  O        34.2949520556       18.2404844764        9.4051766413
  O        31.6460620485       18.3196900184       10.1567838480
  O        30.2978147995       15.1075742078        8.1569499439
  O        28.5511295106       21.0265479841        6.8296064735
  O        28.5172753787       20.9509090233        9.4073107152
  O        27.4611852553       18.6807047931       10.6593497453
  O        26.6912454105       16.9307174308        9.4181656092
  O        13.1468940522       18.6938140961       10.5863121584
  O        13.9186930435       16.9162459734        9.4046487999
  O        50.5951591049       19.3500834493        8.0204800468
  O        47.6816342177       16.3276402414       10.4178888734
  O        46.9488492650       18.1753982044        9.3265055530
  O        11.0688940678       17.0158758490        9.4895544828
  O        47.6720771172       16.3363389908        5.6518129814
  O        46.9226957761       18.2357106719        6.6616612805
  O        49.5681474625       18.3177205743        5.9821807881
  O        10.3184928982       15.1003322061        7.9970653297
  O        52.6706476479       21.0279058495        9.2418020922
  O        12.1467416253       20.8913043153        6.6733236290
  O        13.1047715943       18.6143796687        5.3261976404
  O        13.9558572825       16.9868820040        6.6650137181
  O        29.9864112962       14.4404762159       10.7430911623
  O        28.0851085711       14.6513798420        9.5030713135
  O        32.0715220011       16.8521519393        8.1387226131
  O        30.9645451324       20.9508924972       10.4065959101
  O        32.9436924178       20.6005668109        9.3343313120
  O        29.5594012383       17.0758971614        9.5778890784
  O        30.8555389016       20.8773810902        5.6586470617
  O        32.8717566592       20.5648969525        6.6653560831
  O        31.6283218490       18.1719804490        5.9071148835
  O        28.2795672741       18.6662374715        8.0662485647
  O        32.4923463133       14.2123539758        9.4099894973
  O        32.4040593273       14.2023742268        6.8480862850
  O        29.9550627843       14.5165348908        5.4883082201
  O        28.0533412847       14.5867222643        6.7440372014
  O        17.8892946980        1.9665409373       10.6627212596
  O        18.9563742734        3.5270576628        9.4078330220
  O        39.1685853516       34.1385585101        7.9970761919
  O        43.2801771791       33.0589138464       10.3316529432
  O        42.0343467022       31.5064791652        9.2415575826
  O        20.3177163289        1.0369585503        9.4798744002
  O        43.2760003085       33.1825486384        5.5749034823
  O        42.0051825166       31.5841093820        6.5830200149
  O        40.5791662483       33.7754017397        5.9356697832
  O        22.3674821784        1.3850038398        7.9977747331
  O        36.6728684797       35.0996584582        9.2333789225
  O        16.4457249903        0.0640581087        6.6681686455
  O        17.9364248762        2.0432579586        5.3265022882
  O        18.9193618565        3.5930771108        6.6658997635
  O        29.6868414353       18.9044123614        4.0110827794
  O        29.8620749811       18.9133507669       12.0647125115
  O        31.2532857010       16.4825585255       12.0905797950
  O        32.1380849328       17.5880089660        1.4151912165
  O        30.4151996155       16.0556414037       14.5628988915
  O        29.0237352278       18.4645588654       14.5696380075
  O        39.4567358087       35.2438087659        4.0019887612
  O        19.1411477359        0.0044694215       11.9905163250
  O        41.9697205440       35.1728545994        4.0872299559
  O        21.6911770361       -0.0693764567       11.8956764109
  O        51.3648074862       18.6143906685        4.0053006843
  O        10.7509301469       18.7471220853       11.9049137478
  O        50.0792625978       16.4127334472        4.0917860018
  O         9.5242169360       16.4831526485       11.9912166458
 Zr         9.2962080544       16.0531815915        6.1820376904
 Zr        49.8357687873       16.0069929423        9.7466159102
 Zr        22.0732225358        0.0302935466        6.1887055913
 Zr        42.4606476010       35.1531299232        9.8006085738
 Zr        29.5817960649       19.0483028923        6.2210329868
 Zr        29.5706774999       19.1765878321        9.8742892983
 Zr        11.0371516105       19.0524018802        9.8276686158
 Zr        11.0429633657       19.1552829485        6.2511983888
 Zr        31.3055313654       16.1082086335        9.9673471790
 Zr        31.3894758715       15.9969840892        6.4457107709
 Zr        18.6010491520       -0.0018891838        9.7633739921
 Zr        18.5064407300       -0.0083434427        6.2136158390
 Zr        12.3011190111       16.3233722184        7.9904745873
 Zr        48.6147994385       18.8326972904        8.0098531119
 Zr        20.3160556150        2.4738850671        7.9900400652
 Zr        40.6427626914       32.6863986496        7.9779209414
 Zr        28.3147963883       16.3349088486        8.0932981812
 Zr        32.6070766342       18.8559891388        8.0529107006
  H        29.4812028478       17.5971212217        1.8151429592
  H        32.0013880229       18.8096636444        3.4443543190
