     569
 i =      157, E =     -4729.4969638247
  C        11.8589423979       14.0534651596        5.7415075364
  C        12.4564264594       12.8905684318        5.0232735025
  C        11.7046882486       12.1715133948        4.0817284602
  C        12.2810848934       11.1093190329        3.3893999637
  C        13.6217321412       10.7396642973        3.6170003942
  C        14.3549793215       11.4434240607        4.5902725890
  C        13.7820734735       12.5083939332        5.2817720484
  C        14.2612172799        9.6489800261        2.8435963326
  C        14.2563203552        9.6568210868        1.4218996114
  C        13.7431203280       10.7589359345        0.6680050095
  C        49.1269447345       21.2332838041        5.8796187511
  C        48.5501964909       22.4012730861        5.1525824543
  C        49.3001347414       23.0684503077        4.1714207818
  C        48.7331979861       24.1076039206        3.4382364703
  C        47.4027431464       24.5094348324        3.6670400990
  C        46.6719205637       23.8607565748        4.6807794652
  C        47.2343752113       22.8158404114        5.4101115238
  C        46.7724438250       25.5870908778        2.8697609835
  C        46.7613364767       25.5574068082        1.4480014846
  C        47.2612333754       24.4422933212        0.7045140217
  C        14.8602164546        8.5704755335        0.7086170036
  C        14.8921273661        8.5970986005        3.5202304931
  C        49.1133984665       21.2034796982       10.1453135545
  C        48.5281148216       22.3649544021       10.8724258972
  C        49.2671166369       23.0252040825       11.8658138008
  C        48.6908112425       24.0597814763       12.5972748655
  C        47.3606304952       24.4570725700       12.3585925431
  C        46.6405217401       23.8127143437       11.3344946835
  C        47.2140516492       22.7768090243       10.6026996362
  C        46.7221041544       25.5319788920       13.1496321740
  C        46.7336274317       25.5282254435       14.5713440754
  C        47.2489790454       24.4289882936       15.3277528510
  C        40.6376678428       17.1220353806       15.3249035116
  C        40.6621040360       17.1944604563       12.5160197141
  C        11.8830442122       14.0864789735       10.2855477984
  C        12.4723074381       12.9107231880       10.9897608416
  C        11.7147711793       12.1775046470       11.9158591985
  C        12.2813543951       11.0950417155       12.5842493786
  C        13.6201821086       10.7212927104       12.3524274346
  C        14.3581671465       11.4368816543       11.3916443988
  C        13.7927537523       12.5180604108       10.7189650778
  C        14.2537403234        9.6245112757       13.1228219243
  C        14.2523772577        9.6444459804       14.5446612533
  C        13.7425292728       10.7533976643       15.2917502369
  C        22.5094173422        3.2440572556        5.7509735539
  C        23.2181438950        4.3489703020        5.0461314850
  C        24.2110347715        4.0690830134        4.0956486624
  C        24.8334196479        5.1087098281        3.4096688300
  C        24.4782367133        6.4501667587        3.6539059797
  C        23.5128199916        6.7214604470        4.6406390528
  C        22.8859575634        5.6838186614        5.3251813661
  C        25.0817012765        7.5579247777        2.8787892793
  C        25.0576997644        7.5527653972        1.4572218858
  C        24.3629312290        6.5514908517        0.7069836657
  C        38.2990228757       31.9269047080        5.8495600082
  C        37.5592710776       30.8388868132        5.1434305682
  C        36.5929112722       31.1483719556        4.1735242045
  C        35.9609445137       30.1330093697        3.4602726484
  C        36.2791711255       28.7803223004        3.6926770378
  C        37.2168404775       28.4781912568        4.6986583581
  C        37.8525934248       29.4926816520        5.4116494600
  C        35.6620205408       27.6941232244        2.8949258733
  C        35.6916878682       27.7107067544        1.4725842226
  C        36.4029340918       28.7098875056        0.7360325484
  C        25.6782792525        8.6265569287        0.7410871377
  C        25.6767664622        8.6318140870        3.5528242665
  C        38.3269354875       31.9599534031       10.1585303207
  C        37.6010788465       30.8881395424       10.9030697577
  C        36.6667541438       31.2013328241       11.9028070595
  C        36.0471107336       30.1872874952       12.6316713696
  C        36.3457017064       28.8316249783       12.3863967508
  C        37.2598668925       28.5283999750       11.3582232450
  C        37.8815517548       29.5392225926       10.6303337134
  C        35.7243893571       27.7363147119       13.1696187187
  C        35.7231723154       27.7324566125       14.5927562258
  C        36.4168773355       28.7210990036       15.3591288430
  C        46.1355475538       26.6208328947       15.2814759157
  C        46.0882168171       26.5803913442       12.4735816321
  C        22.4631323779        3.2562925628       10.2557601095
  C        23.1617652045        4.3657815136       10.9730284531
  C        24.1693872529        4.0816226195       11.9085995658
  C        24.8003097463        5.1131843492       12.5999569236
  C        24.4435624930        6.4586237502       12.3792369785
  C        23.4598729069        6.7360494371       11.4111728322
  C        22.8247545346        5.7048903655       10.7196976505
  C        25.0709711517        7.5577138694       13.1554834020
  C        25.0537007203        7.5517360628       14.5781994938
  C        24.3592046950        6.5519904629       15.3301052487
  C        26.6111788839       17.8584202263        5.7840407956
  C        25.3069154806       17.9089261982        5.0612547448
  C        25.0494297368       18.9078866355        4.1087084079
  C        23.8378996261       18.9298314601        3.4212705340
  C        22.8469090370       17.9575082329        3.6652219858
  C        23.1002909124       16.9815543758        4.6478328534
  C        24.3142909981       16.9528323790        5.3320218786
  C        21.5750688711       17.9457909241        2.8993038883
  C        21.5764734174       17.9285875909        1.4765146151
  C        22.7827149728       17.8094686785        0.7164551083
  C        34.4405079005       17.1922001800        5.9213255441
  C        35.7345795290       17.1419763205        5.1805278665
  C        35.9416096891       16.1636634347        4.1954051170
  C        37.1205354807       16.1475737955        3.4561542028
  C        38.1244551715       17.1084063756        3.6832569777
  C        37.9209279277       18.0675341115        4.6934110916
  C        36.7385813865       18.0892596370        5.4298041671
  C        39.3781736868       17.1123322354        2.8964512593
  C        39.3753215884       17.1224295793        1.4747666091
  C        38.1682746844       17.2333663584        0.7148026030
  C        20.3296480402       17.9461594821        0.7680533270
  C        20.3503184475       17.9461552162        3.5814210789
  C        34.4925249986       17.2561026351       10.1676681412
  C        35.7937455941       17.1872139380       10.8928139437
  C        36.0414867571       16.1615526052       11.8182009149
  C        37.2210246724       16.1506547502       12.5564550919
  C        38.1866794933       17.1593895951       12.3797665911
  C        37.9507605588       18.1592331199       11.4183599806
  C        36.7650391639       18.1789166527       10.6885261586
  C        39.4314569359       17.1703046031       13.1788702551
  C        39.4024747557       17.1514022718       14.5990533326
  C        38.1809938609       17.2441633142       15.3378253214
  C        35.0828416026       26.6574893991       15.2958185734
  C        35.1341736573       26.6652631577       12.4857080611
  C        26.5602574925       17.8193134065       10.3216659850
  C        25.2495806064       17.8684573090       11.0281818408
  C        24.9824608446       18.8816842051       11.9615726556
  C        23.7663959153       18.9079154017       12.6374000008
  C        22.7875746810       17.9223506525       12.4018913550
  C        23.0478992999       16.9342633836       11.4348194074
  C        24.2654173785       16.9045850916       10.7582934976
  C        21.5253924292       17.9077123618       13.1766350580
  C        21.5511103171       17.9084151077       14.5982873376
  C        22.7704718666       17.8003210215       15.3398351164
  C        14.0463197346       17.8289505426       10.2888816906
  C        15.3499591841       17.8863300825       11.0145599977
  C        15.6067135537       18.8916523781       11.9599255649
  C        16.8152601445       18.9132083264       12.6532868333
  C        17.8010770230       17.9321469112       12.4236831449
  C        17.5489402301       16.9508640196       11.4463168263
  C        16.3400009076       16.9249018955       10.7541854112
  C        19.0698727187       17.9167714341       13.1925894065
  C        19.0693031730       17.9207214983       14.6150025499
  C        17.8622692983       17.8244076601       15.3763587226
  C        46.8079704191       17.2209020814       10.1598021766
  C        45.5216179753       17.1664988201       10.9100953398
  C        45.3130904252       16.1886822464       11.8945920128
  C        44.1340937505       16.1784813944       12.6344801562
  C        43.1361986989       17.1469403209       12.4110798709
  C        43.3427736545       18.1056868048       11.4012149961
  C        44.5219417585       18.1191497028       10.6618320437
  C        41.8838201782       17.1614154248       13.1982140673
  C        41.8860200550       17.1426099234       14.6195293214
  C        43.0937841124       17.2276136130       15.3812098298
  C        20.3162671143       17.9348677183       15.3230889712
  C        20.2936322885       17.8916917146       12.5101139750
  C        46.7855531701       17.2295114434        5.8916931344
  C        45.4807793339       17.1193466814        5.1804979758
  C        45.2625111171       16.1178183574        4.2225725170
  C        44.0741370643       16.0885692254        3.4973233633
  C        43.0757071514       17.0577215954        3.7140833354
  C        43.2832900706       18.0276900019        4.7122528991
  C        44.4729592110       18.0634443438        5.4322373352
  C        41.8315528601       17.0808198973        2.9149890039
  C        41.8595330192       17.0994474346        1.4945936842
  C        43.0810158643       17.2049219873        0.7574644766
  C        46.1532921959       26.6372620763        0.7262410533
  C        46.1625184677       26.6562388763        3.5358804018
  C        14.0455902241       17.8324158770        5.7091309425
  C        15.3663295201       17.9090746014        5.0193183275
  C        15.6380377407       18.9262322689        4.0920838631
  C        16.8668068387       18.9662270226        3.4372387528
  C        17.8513144559       17.9881242292        3.6836028030
  C        17.5865061484       17.0001136881        4.6494062166
  C        16.3598238115       16.9596983380        5.3080022159
  C        19.1181570196       17.9657207554        2.9143550663
  C        19.0944057862       17.9444591156        1.4928804087
  C        17.8745365082       17.8349108841        0.7524815685
  C        28.7826284369       14.1242215748       10.3974535274
  C        28.1811780617       12.9483718318       11.0879556542
  C        28.9046788323       12.2175620579       12.0421497037
  C        28.3110301480       11.1361169919       12.6892234039
  C        26.9814503963       10.7616332971       12.4059535547
  C        26.2816848297       11.4733814799       11.4149563871
  C        26.8719322103       12.5544769205       10.7665834771
  C        26.3144955472        9.6760319194       13.1612619617
  C        26.2886891789        9.7042154214       14.5820037838
  C        26.7740530969       10.8231668508       15.3304211004
  C        32.1899531449       21.2071023166       10.1507923992
  C        32.7630202277       22.3859768003       10.8656759260
  C        32.0046978775       23.0587959386       11.8367740505
  C        32.5600780099       24.1099802919       12.5611501374
  C        33.8908922851       24.5166134025       12.3399387232
  C        34.6300274082       23.8627384140       11.3352313407
  C        34.0767568929       22.8085420939       10.6103676472
  C        34.5101236765       25.5980372060       13.1429265465
  C        34.4912005321       25.5741403658       14.5656715411
  C        33.9760527676       24.4622844481       15.3044028688
  C        25.6808033677        8.6224389329       15.2964956630
  C        25.6881319320        8.6215487404       12.4833885565
  C        32.0777025310       21.1971080992        5.8743934976
  C        32.6429281142       22.3638010430        5.1332595086
  C        31.9046079485       23.0126839267        4.1313700319
  C        32.4725279430       24.0563694588        3.4021629449
  C        33.7932237489       24.4805159393        3.6520261974
  C        34.5121722402       23.8448141953        4.6831612631
  C        33.9492604792       22.7989572123        5.4094588294
  C        34.4309299350       25.5662588392        2.8686409814
  C        34.4504567138       25.5583740989        1.4456726223
  C        33.9553642404       24.4551801888        0.6812716433
  C        40.6236033522       17.1031534076        0.7689173718
  C        40.6000401044       17.1078941369        3.5779448242
  C        28.7396894453       14.0732389152        5.7845075981
  C        28.1214017170       12.9241539706        5.0597155353
  C        28.8456016043       12.2338338888        4.0759287125
  C        28.2594600817       11.1763971874        3.3857861103
  C        26.9320904516       10.7846409286        3.6519399124
  C        26.2256859994       11.4612251704        4.6638165286
  C        26.8111670722       12.5184451596        5.3576835841
  C        26.2855832325        9.6980550852        2.8788734091
  C        26.2735048696        9.7163750129        1.4570874220
  C        26.7646843575       10.8303875681        0.7062921176
  C        18.1354329130        3.1809533954       10.3171880686
  C        17.4061038643        4.2781700807       11.0157767412
  C        16.3902280806        3.9998215793       11.9431311221
  C        15.7424854638        5.0398132942       12.6065869788
  C        16.0945728628        6.3835186877       12.3670603692
  C        17.0841733693        6.6530393042       11.4035280421
  C        17.7332788521        5.6156840467       10.7385045997
  C        15.4701868091        7.4911928523       13.1301027534
  C        15.4853889158        7.4904587691       14.5518174250
  C        16.1869880040        6.4968589663       15.3049661426
  C        42.9457339058       31.8596102808       10.0728281311
  C        43.6462233493       30.7718871057       10.8167212445
  C        44.5915608599       31.0932896129       11.8029437177
  C        45.1973562671       30.0878016513       12.5506282235
  C        44.8712224140       28.7346975917       12.3356152816
  C        43.9456438829       28.4202782978       11.3221955160
  C        43.3367288707       29.4253671868       10.5741466012
  C        45.4888212413       27.6554211898       13.1388406053
  C        45.4928396236       27.6809617425       14.5605460422
  C        44.8057029387       28.6889780803       15.3071705506
  C        14.8563919363        8.5629287457       15.2641887796
  C        14.8749914280        8.5630073511       12.4515181252
  C        42.9463875347       31.9616885465        5.8090267436
  C        43.6916762016       30.8855105485        5.0955481556
  C        44.6562391691       31.1914534334        4.1232390582
  C        45.2777881059       30.1718916709        3.4054839236
  C        44.9540352783       28.8215706935        3.6430907422
  C        44.0205846866       28.5238650958        4.6538859648
  C        43.3923004006       29.5406113085        5.3660896914
  C        45.5630958090       27.7241698872        2.8578337415
  C        45.5332987921       27.7174065791        1.4365338990
  C        44.8269648944       28.7076160002        0.6835664752
  C        35.0646363977       26.6478782872        0.7421414813
  C        35.0482616939       26.6217479526        3.5531104525
  C        18.1486214792        3.2469444904        5.7065795972
  C        17.4302267550        4.3437835087        4.9971439862
  C        16.4146556163        4.0525836162        4.0739482912
  C        15.7663862909        5.0832590884        3.3985909690
  C        16.1214490474        6.4284427324        3.6210028844
  C        17.1133161705        6.7117679926        4.5777630689
  C        17.7609407727        5.6828085242        5.2575092222
  C        15.4908540584        7.5241342544        2.8486115410
  C        15.4965322494        7.5074183108        1.4274809331
  C        16.1932706333        6.5057030327        0.6807788015
  H        10.6725104178       12.4655191864        3.9048085127
  H        11.6947921136       10.5507119719        2.6629611945
  H        15.3921114953       11.1690638496        4.7717927818
  H        14.3516760749       13.0717919017        6.0169644622
  H        13.3762444306       11.6311175639        1.2013144007
  H        50.3227813300       22.7482854184        3.9865383234
  H        49.3196408696       24.6227601631        2.6805508096
  H        45.6425312581       24.1617521742        4.8641620357
  H        46.6634740784       22.2907659783        6.1724029822
  H        47.6297987531       23.5759294330        1.2462018364
  H        14.8727516904        8.5884643970        4.6085436490
  H        50.2869892478       22.7019940904       12.0610600258
  H        49.2690910122       24.5748969028       13.3610922496
  H        45.6113763245       24.1105200418       11.1449148502
  H        46.6535010139       22.2551699670        9.8305851239
  H        47.6077935456       23.5518688607       14.7968844477
  H        40.6701073362       17.1814395756       11.4278404372
  H        48.6873190952       14.0949006437        7.8000768048
  H        10.6812953489       12.4665496236       12.0932522469
  H        11.6895815930       10.5245992681       13.2969241581
  H        15.3936338484       11.1590767993       11.2057717703
  H        14.3651857673       13.0874669996        9.9905389543
  H        13.3758156345       11.6220719750       14.7531357481
  H        47.9302423695       14.2184527499        9.7107336146
  H        47.7802350190       14.3743276557        6.4955611695
  H        49.0850846636       18.5529821515       10.8677121645
  H        10.4165750960       14.1342455597        7.9986668161
  H        24.4731039299        3.0306757991        3.9054675341
  H        25.6044591177        4.8918193992        2.6735625027
  H        23.2314812843        7.7543066818        4.8352420997
  H        22.1187552923        5.8837325240        6.0691722023
  H        23.8019468225        5.7921265247        1.2439830796
  H        36.3608459844       32.1931106814        3.9805691057
  H        35.2118071866       30.3796706340        2.7110473789
  H        37.4722607711       27.4374100956        4.8870467726
  H        38.6007867298       29.2642290010        6.1671447915
  H        36.9698648911       29.4576665318        1.2829056784
  H        25.7132241407        8.6106348925        4.6405106780
  H        36.4453870287       32.2466866016       12.1060852072
  H        35.3170985563       30.4392442799       13.3977770251
  H        37.5052551905       27.4869944449       11.1604763085
  H        38.6079834463       29.3066989846        9.8553145458
  H        36.9954488523       29.4770528523       14.8359941998
  H        46.1098581112       26.5879480820       11.3855505456
  H        44.6683664123       35.1162686720        7.8139744594
  H        24.4483878355        3.0437675708       12.0761075806
  H        25.5842220074        4.8856402437       13.3192059694
  H        23.1727953999        7.7701009004       11.2313760679
  H        22.0492977085        5.9167032696        9.9871766293
  H        23.7950457085        5.7934826040       14.7952693691
  H        44.9539808040       34.3905464198        9.6953272880
  H        44.9020485840       34.2069253991        6.4906774666
  H        40.6656645564       33.2088725067       10.8528631994
  H        23.1501456652        1.9582117047        8.0043037803
  H        25.8085330323       19.6637396089        3.9211505675
  H        23.6444265463       19.7094001357        2.6875995393
  H        22.3470969091       16.2212011724        4.8440734208
  H        24.5213454891       16.1842325432        6.0729895475
  H        23.7255609574       17.6930192381        1.2433694727
  H        35.1611318203       15.4276837048        4.0180585179
  H        37.2803442165       15.3814714048        2.7005406797
  H        38.6890209370       18.8172992181        4.8716478183
  H        36.5639525785       18.8441523166        6.1930217069
  H        37.2262217925       17.3415737403        1.2447929703
  H        20.3569471952       17.9829796638        4.6693930997
  H        35.2992031844       15.3778258878       11.9509724545
  H        37.4109956428       15.3549108645       13.2734857239
  H        38.6931141048       18.9422285073       11.2779556333
  H        36.5586160696       18.9669991956        9.9680787850
  H        37.2486102654       17.3587939798       14.7921787838
  H        35.1159949003       26.6881456511       11.3976804744
  H        28.5131878397       21.0753534647        7.8868223822
  H        25.7375127421       19.6433228594       12.1411257387
  H        23.5603957574       19.6959602848       13.3583492511
  H        22.2998422197       16.1665397546       11.2480406314
  H        24.4833363373       16.1293569768       10.0275508239
  H        23.7041212260       17.6776165738       14.7986650746
  H        28.9840404710       21.7199406614        9.7681444727
  H        29.1829175221       21.7190137832        6.5576768366
  H        32.1517942526       18.5500014313       11.0169445141
  H        27.4089751846       19.0720610212        8.0841024945
  H        14.8487502183       19.6517025612       12.1357849397
  H        17.0110169027       19.6991424166       13.3795830575
  H        18.2996401452       16.1854956564       11.2602632353
  H        16.1338201266       16.1542059312       10.0152832868
  H        16.9197260157       17.7079014522       14.8493969377
  H        46.0915180482       15.4503731808       12.0720890806
  H        43.9703137251       15.4120056945       13.3887316328
  H        42.5798243544       18.8613969706       11.2263844556
  H        44.6996784453       18.8723991453        9.8979501671
  H        44.0366008725       17.3451130835       14.8546879809
  H        20.2874136326       17.9143450772       11.4218136990
  H        46.0402944262       15.3781472667        4.0470378443
  H        43.9070977237       15.3125890117        2.7534562410
  H        42.5162848419       18.7796082591        4.8856018061
  H        44.6563239399       18.8316419627        6.1794190516
  H        44.0142321505       17.3037860876        1.3043152133
  H        46.1994909120       26.6828909061        4.6233194801
  H        52.7412859727       21.0626799679        8.1946856007
  H        14.8763938240       19.6790907070        3.9014496888
  H        17.0769185445       19.7579204316        2.7212934708
  H        18.3382238122       16.2387397616        4.8472199128
  H        16.1399427731       16.1840164128        6.0374908354
  H        16.9411771900       17.7263936785        1.2966516327
  H        52.3226224628       21.6734275971        6.2942911413
  H        52.0134235715       21.7022162605        9.4956381424
  H        49.0677407845       18.6076468292        5.2039481697
  H        13.2477711154       19.0160734455        7.9774859743
  H        29.9300286332       12.5099819438       12.2593159535
  H        28.8727360569       10.5679743416       13.4275749008
  H        25.2546220762       11.1944552380       11.1886938170
  H        26.3286285595       13.1242656630       10.0168609081
  H        27.1273801702       11.6978873373       14.7928204790
  H        30.9837576230       22.7318233769       12.0195772615
  H        31.9649989018       24.6300391605       13.3086528096
  H        35.6596309760       24.1656318116       11.1558991765
  H        34.6555798234       22.2813178354        9.8554041642
  H        33.6229470337       23.5916033960       14.7593606138
  H        25.7259151423        8.6018505587       11.3956023745
  H        30.8906401415       22.6763669133        3.9261207564
  H        31.8913048280       24.5588750791        2.6320547512
  H        35.5345080980       24.1581942834        4.8843436486
  H        34.5129610415       22.2880363825        6.1864040744
  H        33.5857169885       23.5792959087        1.2069533346
  H        40.5909245963       17.0720547101        4.6656277785
  H        32.5123078348       14.1506665369        8.1495973015
  H        29.8677933066       12.5415939336        3.8687653928
  H        28.8284157214       10.6373069358        2.6314953876
  H        25.1986095582       11.1714228580        4.8760481987
  H        26.2621615101       13.0577268622        6.1259060904
  H        27.1100289360       11.7104718353        1.2410714805
  H        33.3057668014       14.2586536437        6.3907963683
  H        33.4098257353       14.3441037302        9.5354126276
  H        32.1054055397       18.4489558721        5.1340652593
  H        30.1757475685       14.1437569662        8.0749708836
  H        16.1180732413        2.9633251340       12.1294261194
  H        14.9529239589        4.8204645942       13.3221327882
  H        17.3668661487        7.6858860935       11.2106436824
  H        18.5155289158        5.8183628318       10.0108939094
  H        16.7536349952        5.7395996832       14.7714507170
  H        44.8276298830       32.1404059794       11.9772265424
  H        45.9370853178       30.3416659757       13.3066710278
  H        43.6832591156       27.3781611757       11.1518940675
  H        42.6003390196       29.1899857604        9.8092725453
  H        44.2304158698       29.4367918660       14.7688568496
  H        14.8514043423        8.5463366433       11.3632929623
  H        44.8997718834       32.2341448800        3.9318265698
  H        46.0246983591       30.4131746503        2.6522672592
  H        43.7636874334       27.4841226116        4.8454654919
  H        42.6458387269       29.3178251546        6.1245789149
  H        44.2685126725       29.4705442926        1.2181533211
  H        35.0070203485       26.6328446504        4.6406966409
  H        36.6053245257       35.1339219746        8.1807241603
  H        16.1432853908        3.0130426635        3.9044811535
  H        14.9737961552        4.8565169339        2.6887685925
  H        17.3973159764        7.7471735676        4.7542337232
  H        18.5442452121        5.8932304272        5.9818160341
  H        16.7648390120        5.7555592416        1.2192104237
  H        36.2789187690       34.4820046830        6.2732483919
  H        36.3812861364       34.2088906262        9.4996278307
  H        40.5793692762       33.2019006624        5.1539491308
  H        17.4711030244        1.9470032564        7.9740916433
  H        28.5501273826       18.8602416147       12.1921636854
  H        28.7128506093       18.7800615019        3.7570302274
  H        31.6683721777       15.7641765220        3.5101717885
  H        31.3020419956       15.7404017697       12.8476364372
  H        28.4779584792       18.6952870628       14.5430981527
  H        29.6815103173       15.3940750719       14.3000246586
  H        32.4015370938       17.1924054272        1.3883734569
  H        18.8537977346        0.8690561891       12.3351511694
  H        40.5281231051       35.2288872241        3.9520894295
  H        42.3241192123       34.4192415872        3.5902236736
  H        22.0875117363        0.6923212970       12.3514220645
  H        11.5967834283       18.7129894019       12.3826673680
  H        52.2653213063       18.4309419864        3.6774224868
  H        49.2547468965       16.4770998865        3.5846230372
  H        10.1503372389       15.7981883527       12.2927405419
  H        50.8502975236       17.6926438021        3.9540951576
  H        10.0462730773       17.3945302359       12.0519320537
  H        20.2152578462        0.0022150627       12.0418814155
  H        39.1836954076       36.1244033913        3.6866121476
 Ni        30.4384291914       17.5782796057        2.5904444365
 Ni        30.6877117040       16.8454685400       -0.0914626408
 Ni        29.2092265499       18.3846418821        0.6685647930
 Ni        29.9726649296       17.6479042561       13.4927311056
  O        10.6500605862       14.3650873966        5.4858486695
  O        12.6132192305       14.6574911864        6.5839248465
  O        49.1480714769       16.8458595561        7.9896511346
  O        50.3502977500       20.9358859284        5.6480015878
  O        48.3485765934       20.5933706587        6.6658467834
  O        11.0518504235       17.0538334871        6.5007460693
  O        50.3211505048       20.8816717238       10.4068295811
  O        48.3467922007       20.5868213330        9.3271438482
  O        49.5440119294       18.2484055464       10.0682125014
  O        12.3591493050       18.6246205581        7.9996812030
  O        48.6933038826       14.1485045749        6.7513355849
  O         8.2099489611       14.2103239247        9.3225021130
  O        10.7353002592       14.5066848672       10.6643112009
  O        12.5717930829       14.5827968357        9.3285162706
  O        22.8443040238        2.0428971155        5.4871922433
  O        21.6050196846        3.5918409816        6.5899340393
  O        42.0579306131       34.1371832072        7.9790153300
  O        37.9812551102       33.1357841319        5.5721141457
  O        39.2168043867       31.5743770713        6.6652368980
  O        20.3082944019        1.0393425303        6.5020756316
  O        38.0238704807       33.1844042895       10.4158552040
  O        39.2174535900       31.5821352294        9.3282727316
  O        40.6522193379       33.7692796171       10.0600491948
  O        18.2557289690        1.3757416557        7.9968007501
  O        44.6222060601       35.1005575398        6.7588004195
  O        24.2054155097        0.0000125328        9.3207918135
  O        22.7530629712        2.0579937459       10.5837873011
  O        21.6244461356        3.5959460881        9.3425235227
  O        27.4910369939       18.7512898085        5.4962257035
  O        26.7606110249       16.9353535015        6.6541212567
  O        30.6465682494       19.3437577727        8.0686610800
  O        33.5895007920       16.2752250788        5.6691262921
  O        34.2710838735       18.1681897338        6.7365497665
  O        29.5734051242       17.0470305103        6.5794878355
  O        33.6344329697       16.3330692606       10.4055449154
  O        34.3060222768       18.2493004265        9.3964469689
  O        31.6650878304       18.2439360900       10.2352428380
  O        30.2942338897       15.1073468400        8.0759290007
  O        28.5526223394       21.0292915510        6.8350568093
  O        28.5202360333       20.9460254516        9.4071766849
  O        27.4512647260       18.6765474965       10.6555345284
  O        26.6921305803       16.9287499666        9.4113776258
  O        13.1482075408       18.6930463387       10.5872834815
  O        13.9192230378       16.9162635171        9.4050787963
  O        50.5965314829       19.3503347444        8.0203385678
  O        47.6838071727       16.3268552286       10.4170716737
  O        46.9527927344       18.1762667130        9.3238018513
  O        11.0700152796       17.0154287230        9.4896055842
  O        47.6766654292       16.3353533765        5.6535526300
  O        46.9272854709       18.2357957591        6.6646296274
  O        49.5688759923       18.3177221181        5.9822002969
  O        10.3189186177       15.1000609538        7.9970829260
  O        52.6707614449       21.0278740904        9.2418021152
  O        12.1468596280       20.8912748292        6.6732689038
  O        13.1076908208       18.6137920511        5.3257804332
  O        13.9572187482       16.9871518189        6.6653156394
  O        29.9537672770       14.5091267908       10.7411358174
  O        28.0718834272       14.6597762060        9.4827326363
  O        32.0760247921       16.8490728173        8.0654269737
  O        30.9873631095       20.8794729789       10.4265983116
  O        32.9533386772       20.5896475508        9.3300010209
  O        29.5715834912       17.0678453187        9.5777512426
  O        30.8513960890       20.8799069146        5.6554889905
  O        32.8691157826       20.5846057047        6.6657071499
  O        31.6753232767       18.2549869929        5.9846394661
  O        28.2949539952       18.6741930583        8.0731490943
  O        32.4917220063       14.2089509304        9.2403619988
  O        32.4016614391       14.2161118905        6.7458039257
  O        29.9063352820       14.4450124857        5.4213458859
  O        28.0478694070       14.5865718021        6.7386432371
  O        17.8892217988        1.9665259843       10.6627821655
  O        18.9561816539        3.5270713840        9.4079665881
  O        39.1684308182       34.1384155548        7.9972054537
  O        43.2801899088       33.0589194071       10.3316724583
  O        42.0342861328       31.5064493689        9.2416305443
  O        20.3175029364        1.0365268570        9.4801650985
  O        43.2760774968       33.1825645715        5.5749047955
  O        42.0051845133       31.5841375644        6.5830333312
  O        40.5788386382       33.7747149978        5.9359788518
  O        22.3672957059        1.3845880640        7.9980355438
  O        36.6728300421       35.0996637484        9.2333654642
  O        16.4456441446        0.0640539445        6.6682294229
  O        17.9365114212        2.0432665291        5.3263912412
  O        18.9189553554        3.5930548484        6.6659611461
  O        29.6512269089       18.6906299773        4.0014461750
  O        29.5311715377       18.9008267914       12.1598114256
  O        31.3449214253       16.4781560189        4.0889436684
  O        31.8542126909       15.7494819425       12.0008473493
  O        31.6118299632       16.6216846371        1.4797715843
  O        30.4582445447       15.9817760880       14.2268278634
  O        28.0987250772       19.3410546901       15.2397078474
  O        39.4567486081       35.2436754869        4.0019984534
  O        19.1416690554        0.0045369480       11.9904955649
  O        41.9694289919       35.1727581584        4.0871640335
  O        21.6912759656       -0.0693100521       11.8959209757
  O        51.3654421372       18.6142806240        4.0053381073
  O        10.7510722928       18.7471540012       11.9049384218
  O        50.0792349172       16.4128013440        4.0917394632
  O         9.5244848578       16.4830695201       11.9912133369
 Zr         9.2978129719       16.0526130680        6.1824705770
 Zr        49.8372320525       16.0065360553        9.7461969819
 Zr        22.0734122223        0.0302566361        6.1889840423
 Zr        42.4610687054       35.1539574134        9.8010112498
 Zr        29.5954765869       19.0594710631        6.2277426955
 Zr        29.5855981386       19.1661814116        9.8820378856
 Zr        11.0386635620       19.0518141531        9.8277787924
 Zr        11.0446287887       19.1547447828        6.2507554931
 Zr        31.3466256026       16.0551746161        9.8068484764
 Zr        31.3626646486       16.0106995462        6.1949505880
 Zr        18.6013559193       -0.0013737790        9.7635850946
 Zr        18.5067454363       -0.0077327409        6.2135595754
 Zr        12.3029564067       16.3234613974        7.9902727147
 Zr        48.6177740482       18.8333769211        8.0098772999
 Zr        20.3154648368        2.4739337414        7.9906586055
 Zr        40.6430831017       32.6871172321        7.9781981303
 Zr        28.3434365817       16.3333833976        8.0736966959
 Zr        32.6124632765       18.8233829254        8.0353594713
  H        29.0665169908       17.3290354042        1.7367195971
  H        28.4996443901       20.1944975226       14.9888543282
  H        32.7565209883       16.0584211660       12.1949719390
