     566
 i =       39, E =     -4712.2298348709
  C        11.8589060477       14.0537473639        5.7416906127
  C        12.4566107863       12.8909586956        5.0232712660
  C        11.7049848428       12.1720659145        4.0815285115
  C        12.2813943468       11.1099032366        3.3891394824
  C        13.6219667285       10.7400912998        3.6168795969
  C        14.3551018786       11.4436622571        4.5903860697
  C        13.7821587087       12.5085816702        5.2819553674
  C        14.2614290764        9.6493526651        2.8434990439
  C        14.2565265047        9.6571002030        1.4217859880
  C        13.7432779023       10.7591442366        0.6678156504
  C        49.1269729648       21.2329797322        5.8797187113
  C        48.5503059312       22.4009558817        5.1525887679
  C        49.3003704218       23.0683138839        4.1716416610
  C        48.7334812551       24.1075151467        3.4384751202
  C        47.4029448939       24.5092117745        3.6670689396
  C        46.6719555182       23.8602738387        4.6805186656
  C        47.2343596763       22.8153189828        5.4098437635
  C        46.7727193085       25.5869669569        2.8698116165
  C        46.7617738291       25.5574258309        1.4480359280
  C        47.2617265030       24.4423570759        0.7045159692
  C        14.8603252196        8.5706627537        0.7085447673
  C        14.8922338451        8.5974190430        3.5201716718
  C        49.1135569824       21.2032900822       10.1453704644
  C        48.5282565885       22.3647561886       10.8725153930
  C        49.2675215040       23.0254893709       11.8653943705
  C        48.6912624691       24.0601089159       12.5968357009
  C        47.3608675708       24.4569665337       12.3586154055
  C        46.6404172153       23.8120441811       11.3351251338
  C        47.2138975326       22.7760648781       10.6033713569
  C        46.7224386985       25.5319742064       13.1496539563
  C        46.7341145321       25.5283292397       14.5713705129
  C        47.2495128493       24.4290976633       15.3277519812
  C        40.6173268798       17.0892900812       15.3013404946
  C        40.6256027893       17.0998143638       12.4916649375
  C        11.8831233866       14.0866397305       10.2854875346
  C        12.4722801320       12.9106259384       10.9894608685
  C        11.7146831971       12.1775461452       11.9156240510
  C        12.2811301485       11.0950272177       12.5840529870
  C        13.6198833264       10.7210711532       12.3521659084
  C        14.3578747563       11.4364233215       11.3912093606
  C        13.7926087793       12.5176893247       10.7185212783
  C        14.2534374775        9.6243382550       13.1226671405
  C        14.2522881818        9.6444306455       14.5445174559
  C        13.7425240462       10.7534533231       15.2915553875
  C        22.5112343899        3.2444672909        5.7520079173
  C        23.2242074880        4.3494332514        5.0502297912
  C        24.2186196099        4.0687971701        4.1014649734
  C        24.8448807793        5.1078495400        3.4179571676
  C        24.4925385153        6.4500318516        3.6627598513
  C        23.5259136279        6.7221188820        4.6481244655
  C        22.8950513694        5.6848956483        5.3301394617
  C        25.0990056021        7.5563011878        2.8871473808
  C        25.0727535509        7.5502644888        1.4654988488
  C        24.3698719934        6.5521593670        0.7186297012
  C        38.3006084093       31.9286656725        5.8492638241
  C        37.5644450279       30.8413159158        5.1407088169
  C        36.6016581345       31.1510339255        4.1676047145
  C        35.9737190651       30.1354149023        3.4517327696
  C        36.2929234768       28.7834955452        3.6861747354
  C        37.2273305941       28.4811944608        4.6949162459
  C        37.8592825004       29.4958483797        5.4101256815
  C        35.6767315196       27.6969574412        2.8902987133
  C        35.7013516492       27.7132878327        1.4681562621
  C        36.4120401321       28.7101805499        0.7279140421
  C        25.6975298772        8.6199527063        0.7463752638
  C        25.6966299706        8.6303877411        3.5585403348
  C        38.3247195848       31.9602593370       10.1570523382
  C        37.5924513479       30.8898374567       10.8982354079
  C        36.6621981151       31.2061697015       11.9009730742
  C        36.0373134573       30.1943280554       12.6285163604
  C        36.3256269460       28.8371440444       12.3790070194
  C        37.2341487867       28.5308191454       11.3466511687
  C        37.8616201207       29.5396426885       10.6202835168
  C        35.7016962129       27.7444635942       13.1648355879
  C        35.7137963007       27.7378221193       14.5882154864
  C        36.4179661328       28.7220859220       15.3507995692
  C        46.1360748324       26.6209532944       15.2815173648
  C        46.0884597611       26.5803309057       12.4736043112
  C        22.4612338134        3.2561977137       10.2570560957
  C        23.1557559597        4.3655891546       10.9782351191
  C        24.1606036032        4.0809234830       11.9165320237
  C        24.7888291871        5.1120528447       12.6107800243
  C        24.4322066846        6.4574515346       12.3897033097
  C        23.4505261017        6.7354030867       11.4197315439
  C        22.8178504611        5.7045685114       10.7256824290
  C        25.0624804336        7.5559599732       13.1639161880
  C        25.0545712952        7.5496015234       14.5866333249
  C        24.3594570809        6.5529447631       15.3417919787
  C        26.6077615187       17.8550602838        5.7791197455
  C        25.2987941460       17.9009414205        5.0606604588
  C        25.0326214936       18.9033751112        4.1140074646
  C        23.8206554247       18.9215281745        3.4269408620
  C        22.8357684879       17.9399222514        3.6611932684
  C        23.0965848554       16.9609793266        4.6391662142
  C        24.3108101995       16.9378227527        5.3251165826
  C        21.5687985207       17.9249038996        2.8846325759
  C        21.5856322920       17.9295089474        1.4614199119
  C        22.8006267592       17.8185113072        0.7144898314
  C        34.4439473116       17.1931428191        5.9131635812
  C        35.7354902294       17.1405702980        5.1718744722
  C        35.9300891713       16.1806486731        4.1659270485
  C        37.1096706169       16.1653153179        3.4274789521
  C        38.1269646932       17.1083304949        3.6732882878
  C        37.9346766103       18.0479259848        4.7046476978
  C        36.7525628572       18.0693973018        5.4409033954
  C        39.3783858672       17.1160896777        2.8819994289
  C        39.3684039021       17.1226808635        1.4596733141
  C        38.1590828264       17.2441043390        0.7053528465
  C        20.3480576111       17.9608600795        0.7372003162
  C        20.3352327551       17.9093697103        3.5513433507
  C        34.4360117875       17.2411648387       10.1832747091
  C        35.7388779837       17.1394645749       10.8978690820
  C        35.9306328528       16.1748710945       11.8989554282
  C        37.1205027228       16.1419844261       12.6214937081
  C        38.1465417948       17.0733164126       12.3660287809
  C        37.9599576919       18.0094065433       11.3308564248
  C        36.7702519512       18.0472704545       10.6098624787
  C        39.3954117249       17.0891887363       13.1600334489
  C        39.3771358998       17.1094433648       14.5820044086
  C        38.1633183154       17.2366912129       15.3284739714
  C        35.0753729112       26.6643881943       15.2954683030
  C        35.0958860492       26.6793749255       12.4847090989
  C        26.6993935469       17.8420166634       10.3877132771
  C        25.3899680517       17.9232097292       11.1029804535
  C        25.1231204193       18.9274352308       12.0465028552
  C        23.8841735517       18.9790984242       12.6858152211
  C        22.8796870273       18.0269660393       12.4114424581
  C        23.1455073998       17.0470278910       11.4370992902
  C        24.3801680752       16.9947332397       10.7947587366
  C        21.5960537262       18.0131582821       13.1596970505
  C        21.5985837976       17.9751964883       14.5819270544
  C        22.8062463127       17.8401727986       15.3383491537
  C        14.0595298643       17.8376401858       10.2830029633
  C        15.3801856923       17.9180549873       10.9874138385
  C        15.6470346835       18.9392756812       11.9140464528
  C        16.8671064194       18.9823493323       12.5893123712
  C        17.8618921517       18.0077667618       12.3650725093
  C        17.6011503204       17.0127935591       11.4028867027
  C        16.3804087538       16.9656963443       10.7279490838
  C        19.1333883391       18.0025690100       13.1413938079
  C        19.1156734854       17.9782966751       14.5653759611
  C        17.8999311441       17.8639013729       15.3113785357
  C        46.8017938725       17.2151796977       10.1553022418
  C        45.5064339687       17.1430581116       10.8920415591
  C        45.2990875308       16.1576536210       11.8698376048
  C        44.1137935555       16.1293770934       12.6000253555
  C        43.1048527262       17.0863614983       12.3753230506
  C        43.3082026356       18.0496275509       11.3685358386
  C        44.4944299570       18.0818103144       10.6390597875
  C        41.8519405234       17.0923006372       13.1660218655
  C        41.8618778193       17.0986460226       14.5882726462
  C        43.0732991924       17.1977031950       15.3423693400
  C        20.3534544885       17.9822117982       15.2908764193
  C        20.3696368351       18.0052683641       12.4766240037
  C        46.7853051715       17.2331215528        5.8847009199
  C        45.4853436295       17.1303206139        5.1610986417
  C        45.2696667837       16.1325615557        4.1980067975
  C        44.0836079646       16.1047409114        3.4680119502
  C        43.0823077166       17.0720387636        3.6826113999
  C        43.2897924628       18.0415775872        4.6818838582
  C        44.4766678400       18.0753902485        5.4075403901
  C        41.8337603461       17.0894067259        2.8875343971
  C        41.8528051203       17.0960008923        1.4659494602
  C        43.0690828709       17.1937778227        0.7194383134
  C        46.1537842808       26.6373360851        0.7262951373
  C        46.1626940525       26.6560535672        3.5359506271
  C        14.0440952059       17.8250514261        5.7001604297
  C        15.3575987623       17.8853261677        4.9906601093
  C        15.6312839853       18.9021073484        4.0631529033
  C        16.8551509985       18.9347091281        3.3973716980
  C        17.8359939321       17.9495730977        3.6316958821
  C        17.5659514866       16.9559155770        4.5909559222
  C        16.3443044160       16.9231619589        5.2607275386
  C        19.1097900145       17.9361113345        2.8700620175
  C        19.1038928708       17.9425330304        1.4472939288
  C        17.8944057440       17.8478077657        0.6879760076
  C        28.7988113146       14.0808083495       10.3568279829
  C        28.1924589043       12.9124012520       11.0524729540
  C        28.9141088410       12.1852618483       12.0109558344
  C        28.3161691799       11.1148848687       12.6710270588
  C        26.9829502945       10.7472948581       12.3976223367
  C        26.2833486464       11.4553231732       11.4035269285
  C        26.8781998939       12.5262037959       10.7420946073
  C        26.3151394155        9.6689300107       13.1620322203
  C        26.3035141645        9.6944035427       14.5834300306
  C        26.8084990367       10.8059737034       15.3300259520
  C        32.1141424832       21.2054815911       10.2248837354
  C        32.6856546243       22.3885126323       10.9271148001
  C        31.9388323321       23.0759858831       11.8969933530
  C        32.5062538424       24.1357709665       12.5993376270
  C        33.8353075840       24.5360672396       12.3562131534
  C        34.5605170973       23.8697214364       11.3498948441
  C        33.9969064573       22.8067328579       10.6483195758
  C        34.4717299488       25.6154080625       13.1472876362
  C        34.4720190858       25.5853965684       14.5696284906
  C        33.9652618137       24.4706936717       15.3097865079
  C        25.6925470333        8.6163567483       15.3015040072
  C        25.6778417088        8.6183136383       12.4884774541
  C        32.0836609485       21.2103685452        5.8780394704
  C        32.6534298154       22.3773484763        5.1434210978
  C        31.9155610815       23.0272085264        4.1415401304
  C        32.4850891649       24.0676905326        3.4100535817
  C        33.8075345161       24.4876050188        3.6573745533
  C        34.5264440492       23.8514851443        4.6883168083
  C        33.9617021522       22.8081818001        5.4169735422
  C        34.4452772204       25.5703355750        2.8708691027
  C        34.4576078375       25.5626177693        1.4479925844
  C        33.9576587832       24.4600068391        0.6865339080
  C        40.6125039558       17.0921148573        0.7466238241
  C        40.6049285691       17.1161551192        3.5566733152
  C        28.7405331204       14.0627496976        5.8134619562
  C        28.1332404539       12.9183291317        5.0761457880
  C        28.8690322866       12.2191588529        4.1068446120
  C        28.2865052399       11.1646876838        3.4084090813
  C        26.9530755947       10.7811618062        3.6554993301
  C        26.2347149197       11.4665597374        4.6532813796
  C        26.8146484964       12.5228881923        5.3522482513
  C        26.3104787454        9.6922499095        2.8817437641
  C        26.3027246392        9.7063052558        1.4598310551
  C        26.8063407271       10.8128101220        0.7061769282
  C        18.1352887111        3.1807836489       10.3171612413
  C        17.4059350951        4.2779664172       11.0157916384
  C        16.3902067119        3.9995882540       11.9433026737
  C        15.7424211812        5.0395540989       12.6067657408
  C        16.0942675483        6.3832932756       12.3670720067
  C        17.0836716558        6.6528335934       11.4033350351
  C        17.7328265841        5.6155102795       10.7383176564
  C        15.4698842806        7.4909999173       13.1300681781
  C        15.4852608147        7.4904168301       14.5517799573
  C        16.1868934760        6.4968757136       15.3049717855
  C        42.9458354487       31.8595174323       10.0729200894
  C        43.6463371265       30.7718612147       10.8167696833
  C        44.5917846679       31.0932837957       11.8029086203
  C        45.1976380021       30.0878115562       12.5505576243
  C        44.8714882975       28.7346799813       12.3356479168
  C        43.9458141134       28.4202493124       11.3223075120
  C        43.3368284139       29.4253133244       10.5742776806
  C        45.4891766969       27.6554331038       13.1388693014
  C        45.4933546128       27.6810713508       14.5605792179
  C        44.8062585817       28.6890915568       15.3072315549
  C        14.8563676011        8.5629792044       15.2641053144
  C        14.8745777798        8.5627238452       12.4514303591
  C        42.9464544543       31.9616067927        5.8090464644
  C        43.6917559017       30.8854651426        5.0956282506
  C        44.6563302851       31.1913809686        4.1232932859
  C        45.2779274754       30.1718156690        3.4055889259
  C        44.9542682097       28.8214559086        3.6432119844
  C        44.0208260187       28.5237840034        4.6540442771
  C        43.3924976555       29.5405291292        5.3662197141
  C        45.5633761182       27.7240793242        2.8579319278
  C        45.5337669254       27.7174577654        1.4366153327
  C        44.8274878528       28.7076959385        0.6836304818
  C        35.0684287100       26.6520310716        0.7414421316
  C        35.0657777942       26.6254807297        3.5520611105
  C        18.1486078248        3.2470154266        5.7065652177
  C        17.4301319897        4.3438860885        4.9972354304
  C        16.4147818850        4.0527255395        4.0737775071
  C        15.7665322098        5.0834272989        3.3984323135
  C        16.1213951713        6.4286403665        3.6210315340
  C        17.1129783239        6.7118959429        4.5781195237
  C        17.7605957805        5.6829266844        5.2578647593
  C        15.4909019287        7.5243761478        2.8486011864
  C        15.4966053472        7.5076104633        1.4274621952
  C        16.1932636902        6.5058224449        0.6807831202
  H        10.6728372930       12.4661394890        3.9045180529
  H        11.6950886385       10.5514201015        2.6626147170
  H        15.3921330307       11.1690759170        4.7721377656
  H        14.3515807919       13.0716915630        6.0175166034
  H        13.3763586842       11.6313469831        1.2010624966
  H        50.3230703486       22.7482564219        3.9868824133
  H        49.3200186816       24.6227926475        2.6809460751
  H        45.6424536470       24.1610258531        4.8636665031
  H        46.6632830890       22.2900468444        6.1718687706
  H        47.6301962858       23.5759359283        1.2461773311
  H        14.8727254592        8.5887754931        4.6084831098
  H        50.2875497704       22.7025930914       12.0603152215
  H        49.2697087862       24.5755497307       13.3603084681
  H        45.6110098307       24.1092887149       11.1460796894
  H        46.6529775648       22.2538788377        9.8318946632
  H        47.6082773776       23.5519724725       14.7968533686
  H        40.6287612284       17.0612327731       11.4039935445
  H        48.6870292887       14.0949692826        7.7998838641
  H        10.6812563305       12.4667484611       12.0930724769
  H        11.6892700879       10.5247459491       13.2967839308
  H        15.3932602173       11.1583937328       11.2052289630
  H        14.3650628279       13.0870040242        9.9900348255
  H        13.3756301500       11.6220170809       14.7528829989
  H        47.9301815774       14.2186115927        9.7109041209
  H        47.7800417544       14.3738439355        6.4951451344
  H        49.0833599698       18.5514839283       10.8671417560
  H        10.4161928428       14.1344538754        7.9988946625
  H        24.4787178388        3.0300671101        3.9102638704
  H        25.6164582772        4.8897372747        2.6827578792
  H        23.2461406032        7.7552470045        4.8435525411
  H        22.1267718524        5.8859371428        6.0727567975
  H        23.8075076052        5.7957570586        1.2582824191
  H        36.3696414452       32.1957496631        3.9746128016
  H        35.2267285422       30.3806599340        2.6999457433
  H        37.4826889208       27.4404604107        4.8835382162
  H        38.6053283052       29.2688302554        6.1681132348
  H        36.9849592486       29.4554974197        1.2719904431
  H        25.7308467255        8.6129231765        4.6463784450
  H        36.4486598709       32.2523811184       12.1081900108
  H        35.3116551764       30.4494320356       13.3977306281
  H        37.4715335463       27.4883340199       11.1447720333
  H        38.5843830520       29.3039364548        9.8427351921
  H        36.9964707890       29.4760015870       14.8246609897
  H        46.1098770756       26.5877153706       11.3855678153
  H        44.6683790487       35.1162110299        7.8139284904
  H        24.4399834171        3.0430733948       12.0833465902
  H        25.5714711742        4.8844015741       13.3313597545
  H        23.1636030792        7.7695077223       11.2399892151
  H        22.0441371552        5.9163846168        9.9913219094
  H        23.7886641922        5.7975507924       14.8095482792
  H        44.9540810860       34.3906350927        9.6953568500
  H        44.9021142848       34.2069589691        6.4905714737
  H        40.6654039167       33.2086174757       10.8527974466
  H        23.1502760065        1.9579345114        8.0049265683
  H        25.7871298741       19.6643084664        3.9290910289
  H        23.6226363997       19.7047610049        2.6983774967
  H        22.3499141711       16.1929777532        4.8308393285
  H        24.5214416830       16.1659924241        6.0617694911
  H        23.7349200820       17.6824546834        1.2516730734
  H        35.1393618163       15.4606031531        3.9689021549
  H        37.2573623056       15.4141179891        2.6547983176
  H        38.7111412301       18.7849401091        4.8989311097
  H        36.5889235710       18.8110351875        6.2192968636
  H        37.2207902812       17.3751835776        1.2368371720
  H        20.3281950722       17.9299503080        4.6397679912
  H        35.1275847260       15.4728536568       12.1121362562
  H        37.2659695097       15.3911918978       13.3950223748
  H        38.7446901894       18.7349100507       11.1268994818
  H        36.6077429009       18.7902836961        9.8328896564
  H        37.2282387913       17.3622510261       14.7902561037
  H        35.0659807540       26.7048876008       11.3969511368
  H        28.4974414630       21.1012708325        7.8622048514
  H        25.8931125564       19.6660939086       12.2596816616
  H        23.6818462504       19.7646236052       13.4108735810
  H        22.3852292836       16.3006907113       11.2159059755
  H        24.5911963158       16.2261182356       10.0556037474
  H        23.7453017391       17.7202084961       14.8065480469
  H        28.9388333432       21.7305810194        9.7913728623
  H        29.1852043009       21.7234169585        6.5429245022
  H        32.1058270029       18.6080306274       11.0056885829
  H        27.4007733519       19.0730966015        8.0294334956
  H        14.8860658330       19.6956511852       12.0936389057
  H        17.0613536417       19.7799591691       13.3034161186
  H        18.3537826155       16.2496677236       11.2148352231
  H        16.1745924507       16.1812109147       10.0032707203
  H        16.9637151203       17.7580198889       14.7711015598
  H        46.0844989180       15.4279263095       12.0520479376
  H        43.9554675003       15.3584523957       13.3510051063
  H        42.5374757784       18.7964489748       11.1893829216
  H        44.6670416316       18.8408226057        9.8795572573
  H        44.0132085729       17.3083508491       14.8092355015
  H        20.3775414584       18.0482493084       11.3887258872
  H        46.0467156012       15.3916906426        4.0240189275
  H        43.9198349834       15.3286064792        2.7235572791
  H        42.5229850104       18.7939372128        4.8543964347
  H        44.6559339967       18.8424646177        6.1569435493
  H        44.0058703009       17.3005548180        1.2587315377
  H        46.1994899771       26.6825389065        4.6233997959
  H        52.7411033533       21.0625152628        8.1948270343
  H        14.8760393848       19.6639094496        3.8825711321
  H        17.0655269147       19.7303781834        2.6858809978
  H        18.3116755083       16.1862924807        4.7795316014
  H        16.1248513817       16.1449373074        5.9878067531
  H        16.9537523130       17.7292857721        1.2177123379
  H        52.3222528703       21.6727659295        6.2940791872
  H        52.0121997205       21.7009618418        9.4957403491
  H        49.0683484641       18.6078144402        5.2041467077
  H        13.2481992425       19.0163045338        7.9741657282
  H        29.9399362169       12.4729837614       12.2294525355
  H        28.8780608186       10.5512959742       13.4126034386
  H        25.2531905363       11.1819613067       11.1846702892
  H        26.3344513059       13.0936004950        9.9908719481
  H        27.1727443357       11.6757362952       14.7915085012
  H        30.9191383453       22.7570591552       12.0993657710
  H        31.9226595130       24.6650143579       13.3494022170
  H        35.5883492736       24.1680567746       11.1538056463
  H        34.5654086194       22.2679703073        9.8939376119
  H        33.6071739358       23.6009915136       14.7665566588
  H        25.7077028557        8.5992921537       11.4004635418
  H        30.9010498748       22.6927682687        3.9366497364
  H        31.9045227611       24.5698324778        2.6392620717
  H        35.5502878066       24.1616537202        4.8867634156
  H        34.5264953217       22.2959779359        6.1922302567
  H        33.5936617005       23.5823289076        1.2131231344
  H        40.6021870553       17.0827334142        4.6445066872
  H        32.5172992641       14.1527524473        8.2543113140
  H        29.8998563407       12.5101831247        3.9186141479
  H        28.8644880811       10.6200054867        2.6650416197
  H        25.2029478540       11.1830224494        4.8505936214
  H        26.2559830703       13.0684718579        6.1089622890
  H        27.1673358291       11.6882407681        1.2382769561
  H        33.2948589496       14.1862062545        6.4360591546
  H        33.4073817452       14.3861359534        9.6135970625
  H        32.1062917578       18.5123306830        5.0831632097
  H        30.2453806102       14.1954979566        8.0667481615
  H        16.1181854482        2.9630786246       12.1297216973
  H        14.9529582177        4.8201549858       13.3224052570
  H        17.3661059991        7.6857116935       11.2102434043
  H        18.5148858652        5.8182164339       10.0105123267
  H        16.7534400678        5.7395194687       14.7714871032
  H        44.8279101126       32.1403886555       11.9771676044
  H        45.9374406770       30.3416939984       13.3065214470
  H        43.6833719550       27.3781357542       11.1520659153
  H        42.6003416630       29.1898364443        9.8095288788
  H        44.2309472666       29.4369002946       14.7689399586
  H        14.8507932908        8.5458896476       11.3632123981
  H        44.8998563180       32.2340611099        3.9318108394
  H        46.0248286335       30.4131122856        2.6523680517
  H        43.7639654750       27.4840422059        4.8456847732
  H        42.6460896128       29.3176630181        6.1247367344
  H        44.2689845397       29.4706014538        1.2181909536
  H        35.0283633834       26.6381311573        4.6397406526
  H        36.6052073486       35.1339421690        8.1807195090
  H        16.1435219868        3.0131837861        3.9041257048
  H        14.9740842172        4.8566627756        2.6884589604
  H        17.3967296395        7.7473198524        4.7548726153
  H        18.5436593432        5.8933350952        5.9824383003
  H        16.7647897745        5.7556571472        1.2192265523
  H        36.2786224101       34.4824502289        6.2731383441
  H        36.3809517930       34.2091448259        9.4998362888
  H        40.5800433838       33.2021052358        5.1540945931
  H        17.4710102725        1.9470051414        7.9741656897
  H        28.8943690071       19.1256331291        3.6750431801
  H        30.7293502697       15.3759165004        3.8505596278
  H        31.0495980451       15.2685077034       12.3354523643
  H        28.6180552295       18.4143365221       14.3774488353
  H        29.2943043774       15.3627956990       14.8622056112
  H        32.2236952794       16.2108588708        2.3358452947
  H        18.8538226878        0.8690585996       12.3352105867
  H        40.5280228710       35.2288386999        3.9520659771
  H        42.3242739570       34.4191268909        3.5903155903
  H        22.0876957309        0.6921662395       12.3515791829
  H        11.5973501996       18.7127894258       12.3830442775
  H        52.2651524427       18.4318634181        3.6776854344
  H        49.2551125723       16.4769162702        3.5849701894
  H        10.1500794109       15.7980227877       12.2929652949
  H        50.8504187838       17.6924007148        3.9541562103
  H        10.0461064029       17.3941017451       12.0521004940
  H        20.2152463869        0.0022087405       12.0419500924
  H        39.1837566853       36.1244740021        3.6866353058
 Ni        30.1858357504       17.4228052865        2.8290563357
 Ni        31.1579689827       16.0832183990        0.0867141697
 Ni        29.8849012634       18.0383119440        0.4171153141
 Ni        30.3521789219       17.0888139149       13.4937982097
  O        10.6500610252       14.3650991967        5.4859526773
  O        12.6133313574       14.6577421421        6.5840854416
  O        49.1479055621       16.8459374286        7.9898419302
  O        50.3504072157       20.9354742296        5.6481568616
  O        48.3486110922       20.5932271762        6.6659928015
  O        11.0526525632       17.0531448991        6.5010081437
  O        50.3213602067       20.8815198672       10.4068232580
  O        48.3468812894       20.5867008764        9.3271917925
  O        49.5442960299       18.2483300422       10.0682393495
  O        12.3598243492       18.6244678809        8.0001256377
  O        48.6932419256       14.1486771220        6.7512398765
  O         8.2099118146       14.2104810371        9.3226032359
  O        10.7355804879       14.5068805365       10.6643179647
  O        12.5720691823       14.5830637048        9.3285095099
  O        22.8445089832        2.0431548845        5.4870974018
  O        21.6055748294        3.5923140237        6.5895060298
  O        42.0579769664       34.1372244827        7.9790818363
  O        37.9815263865       33.1373217270        5.5724724391
  O        39.2171836360       31.5751254168        6.6657574502
  O        20.3084217335        1.0394834985        6.5020620337
  O        38.0242909018       33.1851883499       10.4156895576
  O        39.2169771465       31.5820559331        9.3287545099
  O        40.6522882580       33.7692784970       10.0601510033
  O        18.2556715987        1.3757900019        7.9967914753
  O        44.6222063261       35.1005604230        6.7587758356
  O        24.2053789064        0.0000250813        9.3208079977
  O        22.7531037099        2.0581724670       10.5838718503
  O        21.6242996841        3.5959635898        9.3423485683
  O        27.4842959273       18.7480530118        5.4891910626
  O        26.7620750566       16.9319257836        6.6517440595
  O        30.6684150974       19.4091601877        8.0048384102
  O        33.5865505485       16.2791665531        5.6653113372
  O        34.2779915867       18.1688091676        6.7311741039
  O        29.5810927240       17.0565163528        6.5727633703
  O        33.5531473406       16.3448113959       10.4124368875
  O        34.2864377401       18.2506531254        9.4075349593
  O        31.5681056717       18.3094768216       10.2537074982
  O        30.3300082689       15.1631829963        8.0789307730
  O        28.5519930160       21.0366131048        6.8224862310
  O        28.5081728945       20.9540461151        9.3975515499
  O        27.6626750003       18.6127755323       10.7447326900
  O        26.7403798337       17.0032975475        9.4170401044
  O        13.1541486929       18.6923043463       10.5887327399
  O        13.9241555115       16.9171912252        9.4078511426
  O        50.5963466974       19.3499795707        8.0216131027
  O        47.6827810622       16.3270262465       10.4171548132
  O        46.9506983844       18.1756357509        9.3251918880
  O        11.0706952027       17.0151074459        9.4896155998
  O        47.6756553184       16.3359483438        5.6526221743
  O        46.9256299635       18.2357267708        6.6633383969
  O        49.5688594709       18.3176078748        5.9827170035
  O        10.3188284124       15.1003081036        7.9971735679
  O        52.6708302300       21.0278000090        9.2419266300
  O        12.1468459189       20.8908964137        6.6732497540
  O        13.1086883712       18.6133157499        5.3249402576
  O        13.9590421564       16.9874516154        6.6636400669
  O        29.9930275373       14.4252116805       10.6587516358
  O        28.0723864868       14.6620602364        9.4807622084
  O        32.1010931108       16.9143911957        8.0762407129
  O        30.9041744059       20.8710225266       10.5058900659
  O        32.8709396650       20.5896750778        9.4033989675
  O        29.5679434375       17.0792092177        9.5622969419
  O        30.8614420741       20.8947322882        5.6554888607
  O        32.8739360031       20.5857227402        6.6663563673
  O        31.6795276782       18.2454774236        5.9145975362
  O        28.2904270815       18.6832281427        8.0124530980
  O        32.4915772847       14.2145370304        9.3285183299
  O        32.4044127568       14.2178592551        6.8238619251
  O        29.9172310469       14.4379386949        5.4853546897
  O        28.0415337413       14.5852031584        6.7493824210
  O        17.8890392227        1.9663491055       10.6627600378
  O        18.9561548842        3.5270125472        9.4080396492
  O        39.1685501483       34.1385093079        7.9973075487
  O        43.2801815962       33.0589259194       10.3316862407
  O        42.0343085764       31.5064860018        9.2416821635
  O        20.3176420954        1.0366655490        9.4801718271
  O        43.2760506402       33.1825847559        5.5749140203
  O        42.0052062525       31.5841477146        6.5830606800
  O        40.5789322751       33.7747920566        5.9362135236
  O        22.3672747716        1.3845248512        7.9979635412
  O        36.6728110447       35.0997356315        9.2333465896
  O        16.4456037533        0.0642353745        6.6682833548
  O        17.9364904254        2.0433612945        5.3263809685
  O        18.9190135245        3.5931028068        6.6659510480
  O        29.7338952538       18.8386085206        4.0774563529
  O        31.2656961593       16.1795991693        4.0125478990
  O        31.2659410464       16.1819521965       12.0630957685
  O        32.5265777350       16.4882901830        1.4196224567
  O        30.2417650937       15.4617794213       14.6507033855
  O        29.5735573423       18.3925948200       14.5713012123
  O        39.4567471797       35.2437237692        4.0020025838
  O        19.1417006123        0.0045595094       11.9905242752
  O        41.9694631159       35.1726332582        4.0871956616
  O        21.6913150049       -0.0693081580       11.8959634878
  O        51.3651143896       18.6143505538        4.0056451963
  O        10.7518441958       18.7470762112       11.9048866223
  O        50.0797586910       16.4127928729        4.0919209650
  O         9.5244298234       16.4829767573       11.9912093443
 Zr         9.2971040209       16.0526616535        6.1825663954
 Zr        49.8364710232       16.0066903856        9.7463396871
 Zr        22.0734299352        0.0299899717        6.1889787923
 Zr        42.4611081048       35.1536875430        9.8010548326
 Zr        29.5926961627       19.0653284833        6.1915751485
 Zr        29.6031787324       19.1908182836        9.7169140536
 Zr        11.0396468770       19.0511298584        9.8284404840
 Zr        11.0439718455       19.1543098461        6.2518217954
 Zr        31.3352126987       16.0896579994        9.9086236991
 Zr        31.4015647901       16.0168488121        6.2585305657
 Zr        18.6013867031       -0.0013638756        9.7635680817
 Zr        18.5066768629       -0.0076003027        6.2137331882
 Zr        12.3041056883       16.3238717460        7.9912213691
 Zr        48.6160895191       18.8329431158        8.0105794549
 Zr        20.3153767163        2.4737416085        7.9904849658
 Zr        40.6432864841       32.6869904657        7.9785768884
 Zr        28.3533827765       16.3329159542        8.0673211706
 Zr        32.6499566460       18.8363441205        8.0244303876
  H        29.1134500887       17.8215454097        1.7731705241
  H        32.3736363208       17.4655126926        1.4609195024
