     563
 i =      103, E =     -4694.9787964335
  C        11.8588729186       14.0537681006        5.7416902797
  C        12.4565709594       12.8909850041        5.0232416299
  C        11.7049151549       12.1720820879        4.0815330695
  C        12.2813225971       11.1099209738        3.3891376072
  C        13.6219037071       10.7401303964        3.6168452885
  C        14.3550618539       11.4437184281        4.5903199950
  C        13.7821302865       12.5086381142        5.2818982631
  C        14.2613634870        9.6493844919        2.8434740980
  C        14.2564853553        9.6571402938        1.4217630073
  C        13.7432488343       10.7591886861        0.6677931079
  C        49.1269544537       21.2329787406        5.8796758525
  C        48.5502830066       22.4009273730        5.1525351843
  C        49.3004061613       23.0683982032        4.1717072759
  C        48.7335123428       24.1076112717        3.4385616347
  C        47.4029196928       24.5091840815        3.6670471257
  C        46.6718691504       23.8601234583        4.6803717839
  C        47.2342706947       22.8151530191        5.4096746308
  C        46.7726906366       25.5869452852        2.8697964755
  C        46.7617762517       25.5574166048        1.4480210956
  C        47.2617615811       24.4423551285        0.7045138149
  C        14.8602691094        8.5706920023        0.7085277161
  C        14.8921316782        8.5974337334        3.5201479226
  C        49.1135484398       21.2032711224       10.1453477208
  C        48.5282509005       22.3647388272       10.8724982369
  C        49.2675240246       23.0254771842       11.8653678142
  C        48.6912580767       24.0600929588       12.5968107569
  C        47.3608526846       24.4569273903       12.3586123677
  C        46.6403900694       23.8119793710       11.3351478685
  C        47.2138749795       22.7760106851       10.6033843511
  C        46.7224254413       25.5319389364       13.1496477543
  C        46.7341226629       25.5283108561       14.5713639473
  C        47.2495427593       24.4290927388       15.3277501392
  C        40.6093137558       17.1139719074       15.2910964658
  C        40.6110411208       17.1388038016       12.4810527882
  C        11.8830489977       14.0866608838       10.2854614521
  C        12.4721918098       12.9106349430       10.9894561418
  C        11.7145841533       12.1775850032       11.9156298574
  C        12.2810237739       11.0950620360       12.5840626855
  C        13.6197634585       10.7210771594       12.3521563663
  C        14.3577575269       11.4364100598       11.3911897331
  C        13.7925100593       12.5176834388       10.7184976730
  C        14.2533255728        9.6243384447       13.1226454913
  C        14.2522214433        9.6444488658       14.5444955784
  C        13.7424850482       10.7534850473       15.2915328163
  C        22.5110712353        3.2439795537        5.7532093722
  C        23.2241927886        4.3495335689        5.0534223390
  C        24.2205809740        4.0703314344        4.1064852639
  C        24.8458169654        5.1106210592        3.4241402209
  C        24.4899301275        6.4517572062        3.6688781573
  C        23.5218492432        6.7225330979        4.6529267009
  C        22.8920499136        5.6841106049        5.3336670535
  C        25.0928354190        7.5590641366        2.8929265556
  C        25.0632443903        7.5526436633        1.4716270201
  C        24.3616145335        6.5524479497        0.7263838134
  C        38.3000057143       31.9290279677        5.8496275785
  C        37.5617865742       30.8427206739        5.1417994744
  C        36.5969524638       31.1544846560        4.1713491628
  C        35.9661903975       30.1404036006        3.4559310005
  C        36.2849179194       28.7879722158        3.6877780541
  C        37.2214695082       28.4834928901        4.6938986846
  C        37.8559376508       29.4966826196        5.4090231231
  C        35.6662738010       27.7031476112        2.8915559830
  C        35.6884324763       27.7212776801        1.4694341805
  C        36.3980358426       28.7191675374        0.7295187634
  C        25.6832167790        8.6240180362        0.7514275953
  C        25.6893711231        8.6341792305        3.5633332915
  C        38.3249643482       31.9603865848       10.1573331839
  C        37.5927555259       30.8905992007       10.8992366618
  C        36.6592960611       31.2081357799       11.8986149029
  C        36.0330693414       30.1972615501       12.6262027794
  C        36.3236099420       28.8398917778       12.3804400319
  C        37.2360343460       28.5322238060       11.3519475215
  C        37.8645306035       29.5401406486       10.6252323009
  C        35.6974504350       27.7484492386       13.1660071323
  C        35.7042211859       27.7445779098       14.5893966949
  C        36.4055034472       28.7305609570       15.3524638978
  C        46.1360723509       26.6209344028       15.2815018199
  C        46.0884253325       26.5802803546       12.4735939040
  C        22.4594594303        3.2554788690       10.2573946008
  C        23.1503128455        4.3651309062       10.9807884441
  C        24.1525233100        4.0812918762       11.9219801293
  C        24.7767767676        5.1130739845       12.6185701596
  C        24.4184939373        6.4577382093       12.3962527956
  C        23.4394836197        6.7348862286       11.4234469382
  C        22.8106545689        5.7033984201       10.7273260193
  C        25.0458889746        7.5572154649       13.1704138159
  C        25.0397420123        7.5511065509       14.5930680202
  C        24.3485198632        6.5527748775       15.3496073510
  C        26.6071364412       17.8547507337        5.7844505687
  C        25.2987660777       17.8981131802        5.0645951893
  C        25.0348141302       18.8980911926        4.1148944706
  C        23.8233566954       18.9159139059        3.4269822488
  C        22.8372717237       17.9360697333        3.6632233175
  C        23.0965750630       16.9586953130        4.6431479012
  C        24.3102894043       16.9360190920        5.3300846667
  C        21.5701465711       17.9216908166        2.8869585482
  C        21.5865549878       17.9257069058        1.4637371343
  C        22.8012422917       17.8130694703        0.7165331613
  C        34.4429658947       17.1902667293        5.9105269502
  C        35.7355955220       17.1401538769        5.1691339445
  C        35.9326271830       16.1802273025        4.1637361431
  C        37.1122709045       16.1676827135        3.4246453807
  C        38.1276949359       17.1132931698        3.6689985215
  C        37.9332351351       18.0524777662        4.7002020891
  C        36.7509628334       18.0712706299        5.4368646419
  C        39.3785586497       17.1248887298        2.8752449012
  C        39.3659181320       17.1397130531        1.4528431033
  C        38.1551110656       17.2684138199        0.7021683956
  C        20.3488168557       17.9593074930        0.7398322532
  C        20.3367347530       17.9081139362        3.5540158558
  C        34.4114334986       17.2500217632       10.1872071753
  C        35.7176003363       17.1674676615       10.8969229680
  C        35.9215015546       16.2005731404       11.8942397143
  C        37.1126857520       16.1764392686       12.6143952180
  C        38.1298273559       17.1182760359       12.3612903410
  C        37.9304957392       18.0584826154       11.3317931914
  C        36.7383456755       18.0883324847       10.6126818626
  C        39.3820920381       17.1326165477       13.1521575471
  C        39.3673493932       17.1441812106       14.5746720638
  C        38.1558671453       17.2702857988       15.3252177518
  C        35.0644138128       26.6718161615       15.2963951792
  C        35.0953554117       26.6814302920       12.4856214344
  C        26.7004545373       17.8405951383       10.3918767342
  C        25.3898952144       17.9226663626       11.1060128411
  C        25.1217744296       18.9275057531       12.0485238310
  C        23.8827221588       18.9783496018       12.6877422316
  C        22.8791656754       18.0251203125       12.4139119563
  C        23.1458579316       17.0451284441       11.4398912072
  C        24.3807077477       16.9934332904       10.7979129169
  C        21.5956112583       18.0109404632       13.1621789688
  C        21.5987479346       17.9732414349       14.5844047816
  C        22.8065210858       17.8362845716       15.3403687701
  C        14.0595285468       17.8373756148       10.2834125879
  C        15.3799286139       17.9172147229       10.9886876471
  C        15.6467155351       18.9382736650       11.9155504960
  C        16.8665090053       18.9810843494       12.5914131157
  C        17.8612973902       18.0063115916       12.3678053128
  C        17.6005542849       17.0113604316       11.4055040741
  C        16.3801059192       16.9645850592       10.7299070837
  C        19.1329253526       18.0013077853       13.1441403161
  C        19.1157118149       17.9783920883       14.5682230215
  C        17.9001047261       17.8658418672       15.3147012518
  C        46.7995671192       17.2150249014       10.1534040797
  C        45.5000104770       17.1449784695       10.8840964075
  C        45.2826152882       16.1594210888       11.8595269004
  C        44.0943672434       16.1376632595       12.5856770701
  C        43.0919843677       17.1018061242       12.3603535093
  C        43.3043745013       18.0635242100       11.3539024200
  C        44.4932578972       18.0889349686       10.6282933840
  C        41.8393684246       17.1178498395       13.1524934351
  C        41.8522209765       17.1195418445       14.5749782474
  C        43.0658533017       17.2107116737       15.3267019111
  C        20.3537213486       17.9810777475       15.2935157439
  C        20.3691426081       18.0029579801       12.4791956623
  C        46.7850396925       17.2342918668        5.8819189056
  C        45.4867217565       17.1340322846        5.1535592822
  C        45.2740878122       16.1415793277        4.1840424191
  C        44.0893545989       16.1155946662        3.4512282938
  C        43.0848301526       17.0790095975        3.6693468984
  C        43.2899031828       18.0436991091        4.6741456728
  C        44.4755955451       18.0760658373        5.4021531113
  C        41.8348873368       17.0974034006        2.8750431016
  C        41.8504255045       17.1079235903        1.4532174127
  C        43.0649559208       17.2039622681        0.7036537578
  C        46.1537837561       26.6373226508        0.7262781521
  C        46.1626278890       26.6560042540        3.5359434899
  C        14.0442337542       17.8252851017        5.7004916346
  C        15.3582234003       17.8860375953        4.9919793687
  C        15.6329029432       18.9036670078        4.0657133942
  C        16.8572304588       18.9364086358        3.4007774011
  C        17.8374244663       17.9505479680        3.6347056217
  C        17.5664761475       16.9561922408        4.5929529947
  C        16.3444234710       16.9233184129        5.2619262366
  C        19.1111674247       17.9362261777        2.8730577933
  C        19.1048721882       17.9426199846        1.4503053477
  C        17.8950459021       17.8498412904        0.6913037598
  C        28.7973052931       14.0851096609       10.3881192693
  C        28.1853819525       12.9136710388       11.0729267560
  C        28.9067973493       12.1707147854       12.0196640745
  C        28.3029884461       11.1005671379       12.6739594475
  C        26.9650207892       10.7484109140       12.4044469286
  C        26.2666520959       11.4689905762       11.4188622189
  C        26.8672321698       12.5404597759       10.7636716997
  C        26.2942310091        9.6714023929       13.1670266159
  C        26.2834180364        9.6985608121       14.5880457076
  C        26.7857718440       10.8124076023       15.3330593819
  C        32.1172619493       21.2072929605       10.2223566324
  C        32.6891208335       22.3901739460       10.9252020128
  C        31.9390180882       23.0807055258       11.8903433990
  C        32.5048071332       24.1406190066       12.5936479750
  C        33.8357161073       24.5378561329       12.3563838041
  C        34.5646792442       23.8682727807       11.3549287013
  C        34.0023847258       22.8052828101       10.6519930024
  C        34.4688840361       25.6187789834       13.1479634690
  C        34.4630602826       25.5917957413       14.5703313428
  C        33.9531783263       24.4784691578       15.3104279307
  C        25.6758887057        8.6196034705       15.3069280820
  C        25.6582259226        8.6205017131       12.4937350995
  C        32.0809563674       21.2117853953        5.8764533491
  C        32.6494333204       22.3797696437        5.1422822976
  C        31.9079866374       23.0330373191        4.1454448414
  C        32.4753387939       24.0749701033        3.4144087992
  C        33.7991092780       24.4926391883        3.6575801925
  C        34.5219279499       23.8530418670        4.6834718814
  C        33.9592142223       22.8082580220        5.4116020966
  C        34.4347339475       25.5767991376        2.8714121726
  C        34.4447269826       25.5706161485        1.4485973484
  C        33.9435350093       24.4685110834        0.6871238494
  C        40.6082612404       17.1099591527        0.7366885777
  C        40.6068939220       17.1214460950        3.5467671460
  C        28.7393692121       14.0601200494        5.8200949316
  C        28.1264529282       12.9195996745        5.0804583488
  C        28.8584355205       12.2243638962        4.1057429864
  C        28.2738421706       11.1719365883        3.4061600093
  C        26.9417874545       10.7870056266        3.6577142012
  C        26.2264706244       11.4695880350        4.6593421941
  C        26.8088633286       12.5240126628        5.3594330695
  C        26.2982605046        9.6979398706        2.8853270084
  C        26.2862757663        9.7122689802        1.4636254059
  C        26.7845674025       10.8206103342        0.7091324707
  C        18.1352064093        3.1807725956       10.3171807547
  C        17.4058126353        4.2779438568       11.0157945937
  C        16.3901926018        3.9995473749       11.9434165909
  C        15.7423877171        5.0395120633       12.6068658004
  C        16.0941089305        6.3832648113       12.3670555896
  C        17.0833762393        6.6528102424       11.4031759773
  C        17.7325476095        5.6154941063       10.7381680522
  C        15.4697512639        7.4909796782       13.1300552802
  C        15.4851770312        7.4904242225       14.5517684175
  C        16.1868426927        6.4969039872       15.3049602832
  C        42.9458086629       31.8594671958       10.0728954552
  C        43.6462890483       30.7718135801       10.8167464182
  C        44.5917176922       31.0932313886       11.8029093096
  C        45.1975768698       30.0877646103       12.5505579033
  C        44.8714526064       28.7346277521       12.3356304834
  C        43.9458047987       28.4201935520       11.3222651954
  C        43.3368221867       29.4252583111       10.5742348440
  C        45.4891459840       27.6553878184       13.1388550833
  C        45.4933338254       27.6810413902       14.5605643098
  C        44.8062215182       28.6890508616       15.3072153562
  C        14.8563064256        8.5630041867       15.2640890996
  C        14.8744196645        8.5626927022       12.4514150234
  C        42.9463790828       31.9615629008        5.8089672211
  C        43.6916444125       30.8854248214        5.0955386710
  C        44.6562733333       31.1913301934        4.1232506866
  C        45.2779004807       30.1717570584        3.4055886221
  C        44.9541938002       28.8214014294        3.6431843191
  C        44.0207073909       28.5237343807        4.6539774572
  C        43.3923487803       29.5404891632        5.3661115566
  C        45.5633254769       27.7240333216        2.8579147015
  C        45.5337380266       27.7174254153        1.4365988791
  C        44.8274488947       28.7076558068        0.6836137843
  C        35.0555189751       26.6602330894        0.7423612845
  C        35.0565649206       26.6307824097        3.5529638483
  C        18.1484699529        3.2470061501        5.7065598843
  C        17.4299476878        4.3438684676        4.9972583776
  C        16.4146705581        4.0527147395        4.0737182171
  C        15.7664407057        5.0834196682        3.3983560015
  C        16.1212374241        6.4286360425        3.6210403241
  C        17.1127220468        6.7118936703        4.5782297590
  C        17.7603036741        5.6829174398        5.2579915369
  C        15.4907959755        7.5243809461        2.8485894526
  C        15.4965351465        7.5076369067        1.4274516304
  C        16.1932062482        6.5058588476        0.6807720349
  H        10.6727587363       12.4661464091        3.9045540684
  H        11.6950043878       10.5514261017        2.6626324255
  H        15.3921055435       11.1691561508        4.7720348600
  H        14.3515567587       13.0717743428        6.0174370300
  H        13.3763423024       11.6313959400        1.2010420931
  H        50.3231514769       22.7484363243        3.9870285242
  H        49.3200708667       24.6229748930        2.6811075724
  H        45.6423092290       24.1607433739        4.8634071745
  H        46.6631466648       22.2897508375        6.1715739234
  H        47.6302351446       23.5759389876        1.2461821489
  H        14.8725807725        8.5887856439        4.6084581886
  H        50.2875615164       22.7025947770       12.0602685591
  H        49.2697127219       24.5755445143       13.3602698138
  H        45.6109708421       24.1091955197       11.1461273948
  H        46.6529559791       22.2538171575        9.8319121748
  H        47.6083145686       23.5519686960       14.7968550330
  H        40.6113549653       17.1049166845       11.3931642218
  H        48.6868339905       14.0950962094        7.7997782937
  H        10.6811657406       12.4668108074       12.0930895359
  H        11.6891606620       10.5247993916       13.2968058193
  H        15.3931313593       11.1583493869       11.2051946180
  H        14.3649561385       13.0869820138        9.9899922559
  H        13.3755924078       11.6220457876       14.7528538791
  H        47.9301187925       14.2188001398        9.7111434052
  H        47.7799745887       14.3736490814        6.4949047707
  H        49.0827135072       18.5512112995       10.8669157918
  H        10.4160041599       14.1345011086        7.9990580108
  H        24.4825140497        3.0319975040        3.9156651844
  H        25.6187506434        4.8945064446        2.6897808432
  H        23.2400654451        7.7552306082        4.8476689891
  H        22.1221891053        5.8831652206        6.0751382018
  H        23.8022471190        5.7947607263        1.2673559188
  H        36.3654852777       32.1996330543        3.9801509481
  H        35.2174219179       30.3872529080        2.7064402236
  H        37.4763087834       27.4422710735        4.8805230298
  H        38.6033957651       29.2679843467        6.1651202214
  H        36.9697070676       29.4652682892        1.2738016229
  H        25.7266756734        8.6163063193        4.6510460796
  H        36.4440792425       32.2545552279       12.1029434847
  H        35.3045818988       30.4531813420       13.3924623612
  H        37.4752846109       27.4895531764       11.1532455148
  H        38.5898715835       29.3035433098        9.8503563850
  H        36.9838403512       29.4849429742       14.8268537063
  H        46.1098272465       26.5876479998       11.3855569979
  H        44.6683555793       35.1161882044        7.8139128690
  H        24.4329256492        3.0437602580       12.0890085431
  H        25.5578843755        4.8867570727       13.3412092254
  H        23.1517183072        7.7686625264       11.2432309728
  H        22.0387775626        5.9137496500        9.9906503574
  H        23.7785747137        5.7958689232       14.8186408229
  H        44.9541018491       34.3906053428        9.6953108127
  H        44.9021336555       34.2069232037        6.4905855457
  H        40.6654043906       33.2085260968       10.8527819881
  H        23.1501710452        1.9577244014        8.0052728367
  H        25.7912065832       19.6566842885        3.9281862393
  H        23.6267479281       19.6974487247        2.6962279610
  H        22.3491655766       16.1916397137        4.8357020117
  H        24.5200373963       16.1654648160        6.0683344274
  H        23.7355797893       17.6747262088        1.2531853350
  H        35.1419971868       15.4599772653        3.9667533355
  H        37.2612947867       15.4169809274        2.6516496858
  H        38.7075716207       18.7918762260        4.8939587060
  H        36.5860291796       18.8137421096        6.2141549135
  H        37.2187548968       17.3987023413        1.2374241108
  H        20.3300956683       17.9291107085        4.6424302489
  H        35.1264853037       15.4890035914       12.1058420819
  H        37.2667636892       15.4234582730       13.3841273274
  H        38.7075969171       18.7925971136       11.1292634943
  H        36.5675452334       18.8338997721        9.8396337737
  H        37.2196570440       17.4025416593       14.7905285805
  H        35.0702360958       26.7044239132       11.3976874941
  H        28.4962619673       21.0988736864        7.8628105427
  H        25.8904511057       19.6676241773       12.2614067356
  H        23.6797856495       19.7639841849       13.4125087905
  H        22.3860688804       16.2983029161       11.2186813031
  H        24.5921614872       16.2248594577       10.0588503876
  H        23.7454708876       17.7154837632       14.8085236306
  H        28.9339523105       21.7348084326        9.7935546766
  H        29.1935827303       21.7156146457        6.5470078608
  H        32.1198699534       18.6307927684       11.0435063352
  H        27.3986673477       19.0718815768        8.0727295354
  H        14.8859315181       19.6949171917       12.0948055227
  H        17.0605632592       19.7788354488       13.3054133632
  H        18.3530197166       16.2479938873       11.2177369403
  H        16.1745717465       16.1801288906       10.0051063236
  H        16.9634925601       17.7612682128       14.7748909015
  H        46.0627587516       15.4245784915       12.0441462796
  H        43.9293229147       15.3669190198       13.3354056013
  H        42.5393223403       18.8156992265       11.1727195029
  H        44.6725493588       18.8477455864        9.8701628992
  H        44.0049694444       17.3188323020       14.7917127917
  H        20.3769124178       18.0452328271       11.3912620403
  H        46.0523431281       15.4025377651        4.0075214109
  H        43.9288652930       15.3425226693        2.7028732498
  H        42.5214646426       18.7936341184        4.8499869849
  H        44.6514953408       18.8397142332        6.1558758733
  H        44.0035018452       17.3066110208        1.2407286189
  H        46.1993767641       26.6824661044        4.6233950504
  H        52.7411201337       21.0625239874        8.1948337347
  H        14.8780712638       19.6659371781        3.8853578856
  H        17.0684243773       19.7326436569        2.6901612473
  H        18.3117753970       16.1860781106        4.7811942462
  H        16.1241848174       16.1445337124        5.9881593909
  H        16.9543659511       17.7326980117        1.2213073003
  H        52.3222409612       21.6727508571        6.2940768966
  H        52.0121802224       21.7009367590        9.4957410506
  H        49.0684166544       18.6078942672        5.2039894839
  H        13.2482083556       19.0162623086        7.9743572726
  H        29.9385895090       12.4431732925       12.2299349407
  H        28.8629703601       10.5245515619       13.4074313472
  H        25.2333869737       11.2053386894       11.2027770362
  H        26.3251260905       13.1186993596       10.0195574810
  H        27.1457773763       11.6830423510       14.7932028375
  H        30.9176036034       22.7645112318       12.0880434327
  H        31.9184762714       24.6723874589       13.3397825934
  H        35.5939528359       24.1645389875       11.1633059430
  H        34.5732713705       22.2645435739        9.9007820829
  H        33.5953292389       23.6084729844       14.7675095245
  H        25.6876000940        8.6010369448       11.4057277062
  H        30.8923886880       22.7000164766        3.9439211040
  H        31.8922877780       24.5796487064        2.6471623078
  H        35.5470121718       24.1615093402        4.8780795084
  H        34.5268317292       22.2929700272        6.1827102879
  H        33.5784225682       23.5910623427        1.2134494611
  H        40.6063856489       17.0838025488        4.6344842243
  H        32.5128827815       14.1598841895        8.2555799026
  H        29.8879805074       12.5174185463        3.9141929965
  H        28.8491727209       10.6295837088        2.6590457789
  H        25.1954649201       11.1851860940        4.8593676445
  H        26.2529744868       13.0676434781        6.1195756580
  H        27.1420313817       11.6978210630        1.2408812566
  H        33.2972486373       14.1990192315        6.4425683971
  H        33.4048464234       14.3704758011        9.6190562337
  H        32.0899925313       18.4884075750        5.0709091459
  H        30.2417339635       14.1959977463        8.0725189442
  H        16.1182575958        2.9630306381       12.1299278075
  H        14.9530054400        4.8201014045       13.3225911973
  H        17.3656767183        7.6857010515       11.2099561195
  H        18.5144755473        5.8181986414       10.0102220634
  H        16.7533844695        5.7395421057       14.7714782293
  H        44.8278306543       32.1403351425       11.9771899681
  H        45.9373528859       30.3416454384       13.3065485038
  H        43.6833722887       27.3780804564       11.1520064252
  H        42.6003702447       29.1897744972        9.8094534281
  H        44.2308767979       29.4368352765       14.7689272999
  H        14.8505724360        8.5458375054       11.3631979365
  H        44.8998453779       32.2340067826        3.9318086285
  H        46.0248341228       30.4130403403        2.6523954038
  H        43.7637992633       27.4839965114        4.8455826762
  H        42.6459193959       29.3176170754        6.1246066687
  H        44.2689073231       29.4705355970        1.2181712420
  H        35.0215979203       26.6414860991        4.6407392533
  H        36.6051709846       35.1339914467        8.1806670598
  H        16.1434578250        3.0131712400        3.9040015701
  H        14.9740409777        4.8566546640        2.6883286413
  H        17.3963948948        7.7473248129        4.7550688476
  H        18.5432665162        5.8933256209        5.9826709554
  H        16.7647335359        5.7556919649        1.2192119787
  H        36.2785001297       34.4825226891        6.2732139455
  H        36.3808888520       34.2091378041        9.4997263149
  H        40.5798332716       33.2018984556        5.1541447820
  H        17.4707940662        1.9469545083        7.9741392855
  H        28.9705363771       19.2198019605        3.6267013855
  H        30.8928136414       15.3104005934        3.8074048032
  H        30.8604729148       15.3013865819       12.3015026004
  H        28.6923038125       18.2827909216       14.1574696682
  H        29.6968681322       15.1087973711       15.1148174839
  H        18.8537283502        0.8690226687       12.3352254678
  H        40.5280208439       35.2288824943        3.9520947763
  H        42.3240127564       34.4189649866        3.5903861848
  H        22.0876801166        0.6921028137       12.3515420124
  H        11.5974046873       18.7127042525       12.3829729069
  H        52.2651639279       18.4318453209        3.6777275463
  H        49.2548237055       16.4771069973        3.5851385538
  H        10.1499196058       15.7979947464       12.2929113060
  H        50.8504170018       17.6924308067        3.9541497018
  H        10.0460530514       17.3941402399       12.0520773076
  H        20.2151523015        0.0021733809       12.0419582133
  H        39.1837151837       36.1244554388        3.6865779176
 Ni        30.0590184553       17.2518990098        2.8326960602
 Ni        30.6951649342       16.1992951719        0.9890905610
 Ni        29.4659259130       17.9453181486        0.4173412850
 Ni        30.6087134406       16.9304641467       13.9090832145
  O        10.6500456237       14.3651394977        5.4859389738
  O        12.6133048702       14.6577600910        6.5840832215
  O        49.1478317873       16.8459020144        7.9898682555
  O        50.3503939934       20.9354548037        5.6481365248
  O        48.3486147696       20.5932036734        6.6659633898
  O        11.0524884089       17.0531626393        6.5010227414
  O        50.3213694360       20.8815147202       10.4068025299
  O        48.3469052863       20.5866914240        9.3271553178
  O        49.5442106203       18.2483077039       10.0682435448
  O        12.3598155652       18.6244549474        8.0001433183
  O        48.6931897013       14.1487060634        6.7512026357
  O         8.2098211336       14.2106372292        9.3227258322
  O        10.7355169222       14.5068961096       10.6642840153
  O        12.5720601835       14.5830611377        9.3285120078
  O        22.8444043080        2.0429858287        5.4872966196
  O        21.6049694717        3.5918818122        6.5900858580
  O        42.0579468605       34.1371084395        7.9790409277
  O        37.9815338589       33.1378637147        5.5726624840
  O        39.2169788409       31.5751112663        6.6655705424
  O        20.3083694891        1.0393317874        6.5019890546
  O        38.0243648495       33.1853601337       10.4155809976
  O        39.2169975959       31.5820261729        9.3288407295
  O        40.6522602457       33.7692285366       10.0601629759
  O        18.2555156440        1.3758270696        7.9968077970
  O        44.6222205464       35.1005363935        6.7587556123
  O        24.2053868067        0.0000151584        9.3208129925
  O        22.7528671804        2.0577652486       10.5836978136
  O        21.6238991633        3.5954743856        9.3416476527
  O        27.4814402519       18.7484400856        5.4942940898
  O        26.7634300759       16.9313022668        6.6562877675
  O        30.6678354974       19.4086110042        8.0079773521
  O        33.5859924910       16.2771462639        5.6667845957
  O        34.2781769687       18.1674452800        6.7299865465
  O        29.5735389834       17.0616975975        6.5799583641
  O        33.5453493692       16.3396216516       10.4195954456
  O        34.2272652135       18.2510082715        9.4121115024
  O        31.5551557358       18.3087262450       10.3232562266
  O        30.3292033998       15.1634725740        8.0891760500
  O        28.5519584664       21.0351328673        6.8237314352
  O        28.5089323993       20.9546720148        9.4007865469
  O        27.6637307808       18.6117333780       10.7491160469
  O        26.7408200529       17.0017417895        9.4212755201
  O        13.1542104682       18.6922449991       10.5888307725
  O        13.9242699992       16.9171643472        9.4079762651
  O        50.5962727011       19.3499472433        8.0216185767
  O        47.6805942978       16.3275459618       10.4176007453
  O        46.9514819293       18.1760753594        9.3245496414
  O        11.0705790003       17.0150812241        9.4896599535
  O        47.6751368527       16.3361141407        5.6520839265
  O        46.9247455911       18.2355816301        6.6625799761
  O        49.5687518563       18.3176271395        5.9826545493
  O        10.3187842246       15.1003687861        7.9971723237
  O        52.6708084249       21.0277698661        9.2419280323
  O        12.1468340711       20.8908889354        6.6732623824
  O        13.1087763275       18.6133286843        5.3249515642
  O        13.9589580180       16.9874193840        6.6637277062
  O        29.9864786716       14.4347102988       10.7269322102
  O        28.0864416920       14.6558523287        9.4935879396
  O        32.0937435544       16.9151662449        8.0898325473
  O        30.9066116616       20.8748591201       10.5050634208
  O        32.8706855575       20.5892869137        9.4013037480
  O        29.5739299819       17.0781424621        9.5718094355
  O        30.8590154565       20.8964256112        5.6571372805
  O        32.8729727816       20.5873195385        6.6640475861
  O        31.6773295466       18.2441144168        5.9167927459
  O        28.2882565937       18.6822537318        8.0527940343
  O        32.4873960323       14.2167848744        9.3309523924
  O        32.4039865463       14.2175498356        6.8247890340
  O        29.9151513977       14.4292512267        5.4956445847
  O        28.0387061847       14.5876289907        6.7545271277
  O        17.8890065708        1.9663409907       10.6627691886
  O        18.9560913620        3.5270031749        9.4080689926
  O        39.1685620728       34.1385141028        7.9972799228
  O        43.2801527936       33.0588881555       10.3316986121
  O        42.0342747926       31.5064706194        9.2416709215
  O        20.3175679009        1.0365692866        9.4803011222
  O        43.2760264599       33.1825621324        5.5749038461
  O        42.0051693734       31.5841716545        6.5830470643
  O        40.5789314006       33.7747315883        5.9361592000
  O        22.3671837567        1.3843198570        7.9979173250
  O        36.6727866773       35.0997381611        9.2333189790
  O        16.4455520281        0.0642754136        6.6683257647
  O        17.9364572496        2.0433545555        5.3263609408
  O        18.9189024024        3.5931073631        6.6659260090
  O        29.7400666892       18.8413118310        4.0860411766
  O        31.1743816098       16.2022827227        4.0859962460
  O        31.2541394797       16.1866863694       12.1632106853
  O        30.5989407276       15.4564311832       15.2427853466
  O        29.5644207344       18.3942592779       14.5810292020
  O        39.4567413322       35.2437430754        4.0020089033
  O        19.1416278952        0.0045251854       11.9905590635
  O        41.9694272121       35.1726237562        4.0872009017
  O        21.6912778083       -0.0693528878       11.8959363788
  O        51.3651129984       18.6143357813        4.0056543196
  O        10.7518517259       18.7470565272       11.9048989674
  O        50.0795489976       16.4127781436        4.0919399676
  O         9.5243313958       16.4830158665       11.9911819212
 Zr         9.2968623533       16.0526926293        6.1825083153
 Zr        49.8361573085       16.0068965078        9.7464180148
 Zr        22.0733713212        0.0297396935        6.1890008333
 Zr        42.4610314099       35.1533965816        9.8009412541
 Zr        29.5839100305       19.0627067717        6.1848422001
 Zr        29.6127528581       19.1963821232        9.7207006146
 Zr        11.0395720490       19.0511331656        9.8284647425
 Zr        11.0439477726       19.1543082858        6.2518780963
 Zr        31.3392575766       16.1034665177        9.9393408877
 Zr        31.3883668090       16.0125375576        6.2627355074
 Zr        18.6012733343       -0.0014904605        9.7635981637
 Zr        18.5065945822       -0.0076551317        6.2136494729
 Zr        12.3040236886       16.3239004993        7.9912409491
 Zr        48.6158664277       18.8329062934        8.0103400063
 Zr        20.3148779584        2.4732853789        7.9904074817
 Zr        40.6431362763       32.6868509947        7.9785304240
 Zr        28.3555727050       16.3332358915        8.0710329995
 Zr        32.6445631795       18.8360281107        8.0059559850
  H        28.8537087792       17.7283352187        1.8590895774
