     569
 i =      184, E =     -4729.5042987874
  C        11.8587622280       14.0534970210        5.7415661959
  C        12.4562637095       12.8905592365        5.0231476514
  C        11.7045254502       12.1715967836        4.0815656318
  C        12.2808571593       11.1093494719        3.3892297707
  C        13.6214387445       10.7395708957        3.6169088847
  C        14.3547058107       11.4432549535        4.5902079958
  C        13.7818460341       12.5082620346        5.2817100412
  C        14.2608581124        9.6487982356        2.8435579599
  C        14.2561159667        9.6566462628        1.4218535571
  C        13.7431215084       10.7588593136        0.6679587381
  C        49.1266682259       21.2333319165        5.8797577708
  C        48.5497653208       22.4012641611        5.1526752969
  C        49.2998277228       23.0686492613        4.1717595826
  C        48.7328646804       24.1077372996        3.4385018915
  C        47.4022785248       24.5092375618        3.6670433685
  C        46.6712794371       23.8602947736        4.6804754875
  C        47.2337655764       22.8154252314        5.4098646309
  C        46.7719995954       25.5868987788        2.8697546761
  C        46.7609482514       25.5572777911        1.4479936067
  C        47.2609536539       24.4422082655        0.7045163374
  C        14.8598408647        8.5701787611        0.7086023710
  C        14.8915131282        8.5967841614        3.5202146014
  C        49.1131096955       21.2034150063       10.1453211328
  C        48.5276608584       22.3648092783       10.8724923743
  C        49.2668176116       23.0254096372       11.8655178890
  C        48.6904757071       24.0599615063       12.5969904550
  C        47.3601232551       24.4568307872       12.3586234222
  C        46.6398025751       23.8120619108       11.3349458811
  C        47.2133744997       22.7761658053       10.6031552792
  C        46.7216082630       25.5317579956       13.1496487663
  C        46.7332090953       25.5280814804       14.5713590155
  C        47.2486905211       24.4288943554       15.3277528369
  C        40.6230977310       17.0911901879       15.3342425437
  C        40.6467760319       17.1648530986       12.5243473070
  C        11.8827522234       14.0864995187       10.2855877173
  C        12.4720255401       12.9106516619       10.9898914346
  C        11.7143955862       12.1772755525       11.9157608529
  C        12.2809317410       11.0947510245       12.5841320435
  C        13.6198013479       10.7211289527       12.3524462664
  C        14.3579344413       11.4369212749       11.3919485061
  C        13.7925559306       12.5181688916       10.7193219014
  C        14.2533252145        9.6242695239       13.1228041955
  C        14.2521379774        9.6442296363       14.5446452982
  C        13.7424901553       10.7532907844       15.2917029404
  C        22.5102685484        3.2436994182        5.7534959474
  C        23.2220248607        4.3500193334        5.0535839527
  C        24.2171494869        4.0722842425        4.1050239850
  C        24.8402614360        5.1137493423        3.4225391242
  C        24.4831595347        6.4541647399        3.6691585318
  C        23.5164905771        6.7234342501        4.6548939315
  C        22.8888610025        5.6838888950        5.3356427898
  C        25.0832468218        7.5631293346        2.8939019791
  C        25.0526497926        7.5583325577        1.4725720025
  C        24.3533633955        6.5573952232        0.7258256722
  C        38.2974301378       31.9249025863        5.8530738612
  C        37.5567418395       30.8310990480        5.1572853146
  C        36.5843974513       31.1285695632        4.1897679534
  C        35.9574924565       30.1042871908        3.4845091535
  C        36.2872429547       28.7550022300        3.7220110941
  C        37.2277547459       28.4649853753        4.7286699791
  C        37.8582481939       29.4880914628        5.4336262545
  C        35.6846978586       27.6614884938        2.9227477697
  C        35.7233336426       27.6805008216        1.5005992172
  C        36.4317699981       28.6864302724        0.7701441125
  C        25.6695696262        8.6319750543        0.7534358160
  C        25.6775866658        8.6388478225        3.5657278049
  C        38.3313887265       31.9587379846       10.1636882116
  C        37.6195092190       30.8845959457       10.9185719743
  C        36.6882050068       31.1925471948       11.9228113505
  C        36.0817134421       30.1753661342       12.6589132553
  C        36.3901520329       28.8212592024       12.4165601018
  C        37.3037456203       28.5232952376       11.3861717343
  C        37.9120367774       29.5369545219       10.6511158522
  C        35.7748379714       27.7208110146       13.1980844098
  C        35.7683573709       27.7116215216       14.6213745699
  C        36.4525615256       28.7020432869       15.3934962111
  C        46.1351394318       26.6206970104       15.2814828622
  C        46.0876595479       26.5801177227       12.4735912768
  C        22.4597815658        3.2562445353       10.2577697475
  C        23.1507382467        4.3672023194       10.9808733743
  C        24.1534880766        4.0855006138       11.9222045671
  C        24.7769448253        5.1185740236       12.6181889582
  C        24.4178094956        6.4630512692       12.3954187498
  C        23.4384099568        6.7380941002       11.4222987220
  C        22.8103242449        5.7053156361       10.7269677241
  C        25.0428093177        7.5640819674       13.1706453216
  C        25.0322973166        7.5584256467       14.5934722529
  C        24.3417517197        6.5586729039       15.3489183890
  C        26.5609845040       17.8188731897        5.7925567457
  C        25.2619420063       17.8766573760        5.0659190657
  C        25.0186192682       18.8725846256        4.1071759288
  C        23.8108668355       18.8987329101        3.4146225170
  C        22.8145603937       17.9326725953        3.6595174550
  C        23.0536420984       16.9607661604        4.6491365544
  C        24.2627145037       16.9289315034        5.3398893391
  C        21.5489815095       17.9237889052        2.8882456356
  C        21.5575868205       17.9100688923        1.4663209480
  C        22.7665786471       17.7818575949        0.7122809192
  C        34.4384515721       17.1863352856        5.9667838131
  C        35.7258502999       17.1217383460        5.2147901470
  C        35.9256538578       16.1380038860        4.2330940270
  C        37.1001568389       16.1183336065        3.4845837115
  C        38.1095852789       17.0770351960        3.7002571985
  C        37.9118328334       18.0411303198        4.7079716813
  C        36.7337050859       18.0693832142        5.4506627883
  C        39.3630692689       17.0778619630        2.9096195438
  C        39.3607001055       17.0863561257        1.4869957407
  C        38.1542937299       17.1963037730        0.7274430118
  C        20.3145579722       17.9376886924        0.7530147115
  C        20.3227237150       17.9241904352        3.5659081229
  C        34.4343019173       17.2269830241       10.2435326722
  C        35.7482845349       17.1508606942       10.9426868251
  C        35.9926335739       16.1452511726       11.8915917496
  C        37.1859812433       16.1281514322       12.6063892031
  C        38.1672826546       17.1156954989       12.3930289721
  C        37.9341752352       18.0923388629       11.4063462978
  C        36.7383100126       18.1139502336       10.6927755608
  C        39.4151008168       17.1336611300       13.1872442263
  C        39.3872293400       17.1168509640       14.6090968758
  C        38.1671230467       17.2098633213       15.3500641758
  C        35.1311390183       26.6306977311       15.3188919575
  C        35.1901892624       26.6501146624       12.5083431674
  C        26.5642944739       17.8249742260       10.3242237347
  C        25.2508511598       17.8801006761       11.0239812033
  C        25.0057575865       18.8719733459       11.9857571026
  C        23.7886874280       18.9039207093       12.6597833192
  C        22.7916693013       17.9429208528       12.3976866106
  C        23.0330709099       16.9767606987       11.4041569429
  C        24.2494638905       16.9432746319       10.7264517753
  C        21.5278538277       17.9269392764       13.1681632194
  C        21.5463415206       17.9095952471       14.5895578687
  C        22.7608321888       17.7810320713       15.3358731532
  C        14.0465198572       17.8321484627       10.2848327746
  C        15.3530498389       17.8974482097       11.0025546896
  C        15.6103281833       18.9092263664       11.9406140473
  C        16.8207728222       18.9367186856       12.6297932771
  C        17.8062493891       17.9552018306       12.4023616470
  C        17.5547806557       16.9690511208       11.4301131941
  C        16.3438582665       16.9370933988       10.7422244981
  C        19.0726141689       17.9396661164       13.1736776870
  C        19.0646038781       17.9324784959       14.5955785166
  C        17.8534751048       17.8350567730       15.3503188781
  C        46.8041743781       17.2208763502       10.1617506928
  C        45.5160092116       17.1633896968       10.9130593786
  C        45.3104466564       16.1870359836       11.9004018141
  C        44.1307983322       16.1710473753       12.6403292518
  C        43.1245653943       17.1315623096       12.4163363017
  C        43.3284141558       18.0889637147       11.4036534020
  C        44.5087727163       18.1086519520       10.6644431146
  C        41.8702852412       17.1384892144       13.2046598523
  C        41.8716226204       17.1178918023       14.6275237912
  C        43.0780728801       17.2084039574       15.3897001244
  C        20.3082499087       17.9366226795       15.3086731286
  C        20.2986274734       17.9211771393       12.4964335891
  C        46.7832326333       17.2283857307        5.8920416232
  C        45.4764783731       17.1137187029        5.1838118486
  C        45.2597532219       16.1124743171        4.2247813572
  C        44.0692299696       16.0774709186        3.5030385069
  C        43.0646418230       17.0398980836        3.7236442603
  C        43.2710024700       18.0093046051        4.7231253560
  C        44.4631868104       18.0512299362        5.4393711933
  C        41.8185114905       17.0567852393        2.9260332374
  C        41.8454227083       17.0743818904        1.5045788619
  C        43.0654492674       17.1859657580        0.7665143176
  C        46.1529015411       26.6371328287        0.7262378848
  C        46.1620711723       26.6560284952        3.5358738420
  C        14.0403712784       17.8288241794        5.7067316177
  C        15.3548217634       17.8983905650        5.0081818896
  C        15.6255498423       18.9195096642        4.0854128885
  C        16.8501970979       18.9559742160        3.4237865730
  C        17.8285775088       17.9701264142        3.6604742058
  C        17.5636804351       16.9756088597        4.6190634748
  C        16.3414021565       16.9388797717        5.2846635055
  C        19.0947966834       17.9490784963        2.8933563425
  C        19.0763549397       17.9366090403        1.4722867658
  C        17.8591511044       17.8369757123        0.7266363811
  C        28.7759596019       14.1263816132       10.4314112336
  C        28.1677042442       12.9482411822       11.1090968003
  C        28.8869930812       12.2122254691       12.0624723112
  C        28.2886894964       11.1297125903       12.7019444590
  C        26.9577467508       10.7632744379       12.4152536708
  C        26.2621102135       11.4799944994       11.4250891369
  C        26.8582727691       12.5604790015       10.7812281571
  C        26.2870256243        9.6816362815       13.1714106117
  C        26.2686741737        9.7100641839       14.5922809382
  C        26.7626611681       10.8269288922       15.3385877085
  C        32.1794337345       21.2379068098       10.1537218037
  C        32.7738497266       22.4053823723       10.8677705703
  C        32.0237120886       23.0926652403       11.8357823854
  C        32.5968061139       24.1281592279       12.5677595222
  C        33.9359077221       24.5091584082       12.3530304802
  C        34.6674510465       23.8441429398       11.3501939785
  C        34.0977683363       22.8015679747       10.6211870472
  C        34.5652060852       25.5806963784       13.1604275874
  C        34.5438967395       25.5494674005       14.5829236476
  C        34.0267989162       24.4344083394       15.3153495075
  C        25.6635448437        8.6286702618       15.3090568706
  C        25.6566742570        8.6282416188       12.4960157407
  C        32.0663813787       21.1669996718        5.8790793171
  C        32.6547751282       22.3261840806        5.1457653006
  C        31.9302385296       22.9725981385        4.1311505035
  C        32.5089091767       24.0114868979        3.4040165668
  C        33.8274183574       24.4355918385        3.6670516098
  C        34.5330072348       23.8007131202        4.7088295083
  C        33.9599288558       22.7577133286        5.4332149872
  C        34.4701336204       25.5231259374        2.8877090950
  C        34.4953255980       25.5202093493        1.4638315984
  C        34.0038640774       24.4202014548        0.6924599431
  C        40.6090762222       17.0717267908        0.7793832399
  C        40.5865744014       17.0795794409        3.5893876319
  C        28.7288992704       14.0661280197        5.8192002219
  C        28.1171983920       12.9280112886        5.0760295794
  C        28.8538142758       12.2159514256        4.1166618397
  C        28.2656564346       11.1647173830        3.4179033961
  C        26.9276360316       10.7942449057        3.6590036036
  C        26.2082888468       11.4915740329        4.6475195179
  C        26.7924017002       12.5473013744        5.3437125325
  C        26.2834153685        9.7041811830        2.8881018451
  C        26.2699780688        9.7207848512        1.4668408480
  C        26.7627720222       10.8328454939        0.7146196423
  C        18.1351847946        3.1807726396       10.3172058071
  C        17.4057256033        4.2778994653       11.0157138060
  C        16.3900739321        3.9994466861       11.9432966395
  C        15.7422177289        5.0393715971       12.6067397968
  C        16.0939144900        6.3831541922       12.3670131928
  C        17.0831725696        6.6527601173       11.4031267250
  C        17.7323782540        5.6154828005       10.7381009396
  C        15.4695480862        7.4908089438       13.1300729762
  C        15.4848150164        7.4900534696       14.5517869195
  C        16.1862714557        6.4963740309       15.3049619425
  C        42.9457630452       31.8594576338       10.0728342565
  C        43.6460903445       30.7718061680       10.8167498182
  C        44.5914199682       31.0931170245       11.8030245806
  C        45.1970757349       30.0875563590       12.5506939035
  C        44.8708121731       28.7344770825       12.3356571603
  C        43.9452282199       28.4201651312       11.3222064411
  C        43.3364484494       29.4253097071       10.5741546666
  C        45.4883410038       27.6551810255       13.1388629253
  C        45.4924105758       27.6808059731       14.5605548429
  C        44.8052448000       28.6888059710       15.3071734786
  C        14.8560001531        8.5626199461       15.2641698524
  C        14.8743932863        8.5626712586       12.4514962505
  C        42.9464006357       31.9615320571        5.8090295226
  C        43.6915564533       30.8854217380        5.0955604896
  C        44.6560469615       31.1913080936        4.1231405312
  C        45.2774820910       30.1717074470        3.4053769583
  C        44.9537435896       28.8213878113        3.6430854625
  C        44.0203762394       28.5237531694        4.6539856668
  C        43.3921825979       29.5405250356        5.3662010728
  C        45.5627056060       27.7239841957        2.8578161580
  C        45.5329268945       27.7172870682        1.4365236217
  C        44.8265229586       28.7074566327        0.6835700161
  C        35.1072248058       26.6150727471        0.7652430434
  C        35.0773635523       26.5822875299        3.5764303370
  C        18.1483511118        3.2467567879        5.7065998093
  C        17.4296495894        4.3434798664        4.9973418491
  C        16.4145543949        4.0521508034        4.0736469976
  C        15.7661840162        5.0827563020        3.3982778442
  C        16.1206467626        6.4280442479        3.6210911198
  C        17.1118521588        6.7114696375        4.5785326382
  C        17.7595582694        5.6825994162        5.2583141803
  C        15.4901643366        7.5237337856        2.8486341816
  C        15.4959464174        7.5070121091        1.4274979485
  C        16.1925446869        6.5052180273        0.6807748967
  H        10.6723857574       12.4657385463        3.9046193534
  H        11.6945301186       10.5508150844        2.6627606339
  H        15.3917944157       11.1687781570        4.7717908273
  H        14.3513638322       13.0715762130        6.0170425875
  H        13.3763731759       11.6310901764        1.2012826404
  H        50.3225881546       22.7486991202        3.9871339896
  H        49.3193903963       24.6230656142        2.6809932843
  H        45.6417449493       24.1609906480        4.8635482126
  H        46.6627710666       22.2900526118        6.1718866930
  H        47.6296090014       23.5758922935        1.2462268456
  H        14.8719129547        8.5881148310        4.6085240809
  H        50.2868308978       22.7024785889       12.0604902375
  H        49.2688583583       24.5753470157       13.3605531334
  H        45.6104747007       24.1094784206       11.1457324468
  H        46.6526875157       22.2541145738        9.8314142532
  H        47.6075919699       23.5518191455       14.7968604240
  H        40.6541984385       17.1508640027       11.4360717208
  H        48.6870916235       14.0950918091        7.7999022770
  H        10.6808795420       12.4662812463       12.0930197493
  H        11.6890684685       10.5242113871       13.2966546109
  H        15.3934729796       11.1592669407       11.2062664328
  H        14.3650589246       13.0877990999        9.9911183240
  H        13.3758680935       11.6219807173       14.7530424427
  H        47.9299710129       14.2188585313        9.7108227160
  H        47.7803000335       14.3749798358        6.4953297669
  H        49.0837725914       18.5525066683       10.8675115973
  H        10.4159415168       14.1343133697        7.9988607243
  H        24.4795821372        3.0342814143        3.9130344018
  H        25.6122539958        4.8991097303        2.6867605581
  H        23.2338904520        7.7556906220        4.8507435630
  H        22.1198516749        5.8812900267        6.0784109573
  H        23.7952003979        5.7980053323        1.2656537893
  H        36.3445859071       32.1705115286        3.9909292977
  H        35.2052581243       30.3412139514        2.7352289067
  H        37.4914050247       27.4271770331        4.9220808526
  H        38.6101133874       29.2691545381        6.1882051790
  H        36.9908357659       29.4363917098        1.3220184721
  H        25.7152088066        8.6196273235        4.6534152837
  H        36.4575670559       32.2364486569       12.1234056665
  H        35.3526353514       30.4238343244       13.4270702257
  H        37.5578012164       27.4835363558       11.1907455526
  H        38.6368785741       29.3078140230        9.8736468681
  H        37.0286261623       29.4633034883       14.8751629826
  H        46.1092282246       26.5875691289       11.3855562627
  H        44.6681801551       35.1161210526        7.8139179597
  H        24.4349963317        3.0484088911       12.0903221506
  H        25.5580639313        4.8929307837       13.3410519918
  H        23.1492408171        7.7713467969       11.2412394038
  H        22.0380891251        5.9148925302        9.9904215297
  H        23.7741537865        5.8007302268       14.8168189178
  H        44.9536114609       34.3903841122        9.6952671211
  H        44.9015871255       34.2067166281        6.4906223007
  H        40.6662379567       33.2088768132       10.8532206594
  H        23.1500849179        1.9577458621        8.0055232387
  H        25.7845985811       19.6213963055        3.9190550168
  H        23.6242806903       19.6754556433        2.6762375257
  H        22.2933763743       16.2073899389        4.8447531780
  H        24.4617679982       16.1655453643        6.0882640752
  H        23.7047910376       17.6505602737        1.2438281794
  H        35.1433946914       15.4013610400        4.0640107468
  H        37.2518098944       15.3490330582        2.7304670074
  H        38.6818019496       18.7906754319        4.8788800601
  H        36.5654779015       18.8301502168        6.2094877461
  H        37.2117671458       17.3034502395        1.2569084100
  H        20.3248600700       17.9578086885        4.6539256565
  H        35.2334834620       15.3857944423       12.0633662187
  H        37.3726031354       15.3458955897       13.3388976828
  H        38.6865623531       18.8593994910       11.2346579505
  H        36.5375292911       18.8853229422        9.9528327919
  H        37.2338526128       17.3272516578       14.8069039581
  H        35.1735259749       26.6773104446       11.4204063639
  H        28.5087666800       21.0675855993        7.8956637100
  H        25.7845099826       19.6046394316       12.1868245325
  H        23.5953521663       19.6769320026       13.4003510645
  H        22.2706008993       16.2287069083       11.1971240860
  H        24.4527935558       16.1853689492        9.9737566353
  H        23.6947127082       17.6480734987       14.7976277815
  H        28.9872432690       21.7194625451        9.7504336373
  H        29.1788173039       21.7039854936        6.5538750973
  H        32.0511826300       18.5964022745       11.0566191031
  H        27.3716675444       19.0032546764        8.0641937738
  H        14.8508250861       19.6681006168       12.1146629558
  H        17.0177855622       19.7258338701       13.3522877491
  H        18.3069027872       16.2045433430       11.2464130409
  H        16.1361973632       16.1626059325       10.0077482153
  H        16.9130190848       17.7259588537       14.8182110902
  H        46.0921764604       15.4528075018       12.0806565483
  H        43.9733032396       15.4042324823       13.3956396784
  H        42.5618093440       18.8402901707       11.2255466098
  H        44.6803837192       18.8623377848        9.8994234342
  H        44.0206774060       17.3306074447       14.8638318956
  H        20.2969139986       17.9554398306       11.4084385499
  H        46.0406978514       15.3770399061        4.0453942817
  H        43.9052076384       15.3014210421        2.7585493347
  H        42.5007383167       18.7569930294        4.9005131170
  H        44.6437911638       18.8198117702        6.1869155233
  H        43.9985120243       17.2900649998        1.3126433736
  H        46.1989993601       26.6825955472        4.6233173396
  H        52.7413319552       21.0627074567        8.1946390616
  H        14.8670488637       19.6780248745        3.9052866623
  H        17.0628237884       19.7508606020        2.7121756143
  H        18.3124148359       16.2087179826        4.8063658339
  H        16.1194200871       16.1603375256        6.0104103247
  H        16.9230149068       17.7295948616        1.2663328254
  H        52.3228743106       21.6737393504        6.2944563535
  H        52.0137910615       21.7027161068        9.4955142881
  H        49.0669128142       18.6073448465        5.2044044298
  H        13.2474342853       19.0162315550        7.9762927917
  H        29.9107263523       12.5041526923       12.2870464874
  H        28.8461798531       10.5563425294       13.4393545562
  H        25.2338000350       11.2068731897       11.1974742712
  H        26.3184642944       13.1361018829       10.0334256267
  H        27.1163894302       11.7008001240       14.7999593840
  H        30.9931761158       22.7937538207       12.0118077470
  H        32.0083705391       24.6558275194       13.3151921756
  H        35.7031588354       24.1285519330       11.1757846808
  H        34.6711139778       22.2642014098        9.8692929336
  H        33.6712670105       23.5673711861       14.7659235155
  H        25.6906767805        8.6082468862       11.4081319276
  H        30.9185187461       22.6371155022        3.9133333151
  H        31.9363032003       24.5100581634        2.6249520292
  H        35.5535440764       24.1126264481        4.9213235299
  H        34.5153260668       22.2491106449        6.2179379696
  H        33.6311767926       23.5417776002        1.2116821314
  H        40.5791233989       17.0460886564        4.6772314012
  H        32.5199562509       14.1097034949        8.3472553957
  H        29.8909720680       12.4903383448        3.9379413179
  H        28.8427020899       10.6108960932        2.6805650947
  H        25.1730004565       11.2175402042        4.8397181342
  H        26.2332759003       13.1029787232        6.0927622964
  H        27.1161388891       11.7108820223        1.2476515974
  H        33.2371012628       14.0616002489        6.4804025629
  H        33.4011303556       14.3877745104        9.7079529620
  H        32.1819066343       18.5048971118        5.1843633013
  H        30.1992806714       14.1352732528        8.1465965336
  H        16.1181230903        2.9629280170       12.1297704939
  H        14.9527924984        4.8199015999       13.3224002970
  H        17.3653986077        7.6856763741       11.2099254648
  H        18.5142629714        5.8182510344       10.0101287673
  H        16.7527390121        5.7389616297       14.7714777903
  H        44.8275891961       32.1402008689       11.9773426770
  H        45.9367999807       30.3412860257       13.3067850138
  H        43.6827493101       27.3780734540       11.1518963372
  H        42.6000672129       29.1899759101        9.8092614408
  H        44.2298279516       29.4365325329       14.7688784242
  H        14.8506483422        8.5459792071       11.3632748318
  H        44.8995663304       32.2339828728        3.9316385757
  H        46.0243104760       30.4128938967        2.6520490255
  H        43.7634724388       27.4840204093        4.8456110916
  H        42.6457521958       29.3177361654        6.1247182615
  H        44.2679575914       29.4703121255        1.2181420375
  H        35.0302776632       26.5921206283        4.6638382903
  H        36.6051616998       35.1336953306        8.1807808892
  H        16.1435744737        3.0125663365        3.9038054278
  H        14.9739278657        4.8558492166        2.6881346679
  H        17.3951693981        7.7469684272        4.7555538296
  H        18.5422612844        5.8931393984        5.9832290194
  H        16.7639236267        5.7549124932        1.2191726044
  H        36.2783708288       34.4821973631        6.2730149531
  H        36.3801301067       34.2091811132        9.4998780581
  H        40.5786046896       33.2013967608        5.1544369180
  H        17.4709035039        1.9469071591        7.9739766174
  H        30.0811391393       19.8226660863       12.5049599334
  H        28.6174350281       18.7949220337        3.8757817223
  H        30.7520319977       15.1564330673        3.8692486289
  H        30.9780168666       16.0458727826       12.9734250834
  H        27.7641544757       19.5776637999       14.9568969650
  H        29.3613074404       15.6795560482       14.2087716846
  H        32.4103316652       17.6582962046        1.3495286631
  H        18.8528084871        0.8688624224       12.3349724449
  H        40.5280513382       35.2291148044        3.9521889053
  H        42.3232408860       34.4181923197        3.5910153462
  H        22.0877192872        0.6920346934       12.3513940895
  H        11.5966763528       18.7128169134       12.3826452257
  H        52.2648456900       18.4315736144        3.6774579123
  H        49.2550358212       16.4770816746        3.5845644201
  H        10.1504806217       15.7983022468       12.2923894971
  H        50.8501476337       17.6926432050        3.9540241598
  H        10.0461608620       17.3947495052       12.0518844991
  H        20.2141651092        0.0022177273       12.0420597472
  H        39.1832996233       36.1242247287        3.6864949826
 Ni        30.4339615027       17.9637778641        2.6624525241
 Ni        30.8602113370       16.6450965927       -0.0812234266
 Ni        29.3370331022       18.3114574253        0.4140755469
 Ni        29.4176927537       18.1144226672       14.0758288841
  O        10.6499563820       14.3650882827        5.4857692154
  O        12.6131321438       14.6573568900        6.5839112539
  O        49.1477091411       16.8459062247        7.9896779601
  O        50.3500913648       20.9363168967        5.6481919469
  O        48.3484589800       20.5932977914        6.6659567459
  O        11.0515544608       17.0538467434        6.5006972450
  O        50.3208088933       20.8817213524       10.4069371242
  O        48.3466337434       20.5867604137        9.3270981529
  O        49.5435512807       18.2483989344       10.0683101572
  O        12.3588809277       18.6247219905        7.9997821006
  O        48.6932232990       14.1485574826        6.7512593330
  O         8.2097536630       14.2104973184        9.3226660274
  O        10.7351045208       14.5067098140       10.6643895723
  O        12.5717032793       14.5826957913        9.3286510705
  O        22.8444001838        2.0431135833        5.4873180372
  O        21.6045428435        3.5916657368        6.5905524360
  O        42.0578737924       34.1371010343        7.9790321718
  O        37.9809408703       33.1332894911        5.5717534931
  O        39.2181905913       31.5750433847        6.6665280080
  O        20.3081283263        1.0392013291        6.5019549470
  O        38.0236427123       33.1832288622       10.4165842017
  O        39.2178067802       31.5822945687        9.3282496738
  O        40.6520768912       33.7690460634       10.0602276425
  O        18.2557405753        1.3759346061        7.9967517863
  O        44.6222122308       35.1005258576        6.7587427227
  O        24.2053248175        0.0000791277        9.3208453141
  O        22.7529671085        2.0584808864       10.5841337170
  O        21.6240784423        3.5958507078        9.3420950882
  O        27.4558670451       18.6897843171        5.4975754303
  O        26.6975792140       16.9080738339        6.6743292191
  O        30.6341122490       19.3381988815        8.0766675391
  O        33.5829093785       16.2605247261        5.7479097503
  O        34.2645594615       18.1782459972        6.7510591404
  O        29.5983437725       16.9963702691        6.5885335206
  O        33.5519177941       16.3449667482       10.5630840113
  O        34.2658929621       18.1737748082        9.4111552896
  O        31.6399439275       18.2999316171       10.2291139339
  O        30.2986311531       15.1014213888        8.1558615513
  O        28.5465511144       21.0202041661        6.8408640623
  O        28.5181165938       20.9418902756        9.4043909386
  O        27.4528264937       18.6732080978       10.6592126367
  O        26.6920716764       16.9237575160        9.4154944601
  O        13.1470986874       18.6935988070       10.5864950026
  O        13.9185822075       16.9162520060        9.4045633847
  O        50.5959514908       19.3502579739        8.0206574349
  O        47.6817271395       16.3276572299       10.4178488293
  O        46.9506971477       18.1760051248        9.3252188331
  O        11.0691865518       17.0157498697        9.4896423139
  O        47.6759672574       16.3355724749        5.6533551957
  O        46.9257872687       18.2357528670        6.6638713938
  O        49.5687590492       18.3178031216        5.9823425600
  O        10.3187057682       15.1001700695        7.9971527332
  O        52.6707309049       21.0279611605        9.2417953994
  O        12.1468005738       20.8913721163        6.6733341794
  O        13.1050901759       18.6142455344        5.3262517993
  O        13.9550497256       16.9864328657        6.6655778765
  O        29.9389705344       14.5139893823       10.8120993580
  O        28.0826924873       14.6548872340        9.4970906546
  O        32.0813463687       16.8354609130        8.1467022507
  O        30.9647989150       20.9441786840       10.4202735316
  O        32.9432326762       20.5966303486        9.3426558371
  O        29.5658003599       17.0720397578        9.5974054801
  O        30.8399870549       20.8742343286        5.6579289675
  O        32.8383222817       20.5176787399        6.6642657798
  O        31.6403889691       18.1732992790        5.9188753235
  O        28.2638293583       18.6194610592        8.0725302521
  O        32.4897701719       14.2119038551        9.4120694411
  O        32.3687541464       14.1420901073        6.9099904237
  O        29.9111150485       14.4368525807        5.4924977909
  O        28.0367357713       14.5861140053        6.7559128402
  O        17.8891731096        1.9663617217       10.6627898278
  O        18.9561149999        3.5270092719        9.4080489259
  O        39.1685063908       34.1385578330        7.9971148294
  O        43.2801313051       33.0589041311       10.3316586441
  O        42.0343162894       31.5064652546        9.2416010363
  O        20.3172193956        1.0362654844        9.4804888815
  O        43.2760817620       33.1825409712        5.5749298912
  O        42.0052039424       31.5841369967        6.5830561555
  O        40.5790707271       33.7751853167        5.9357727442
  O        22.3670958638        1.3843757558        7.9980310689
  O        36.6728347544       35.0995388981        9.2333870712
  O        16.4456997972        0.0638258634        6.6681619261
  O        17.9364169671        2.0430637863        5.3264545790
  O        18.9188942326        3.5930238352        6.6658976587
  O        29.5707609350       18.8342865197        4.0828938025
  O        29.7377141539       18.9821275677       12.1520306535
  O        31.5569107684       15.6749772836        4.0753138669
  O        31.6367407235       15.9743118164       12.1580041908
  O        31.7305874569       16.9966356968        1.5810535480
  O        30.1293196321       16.2768241038       14.1583531112
  O        28.7316154102       19.5681951908       15.0726005286
  O        39.4567779010       35.2436883901        4.0020219847
  O        19.1409803157        0.0043419425       11.9905629181
  O        41.9695855183       35.1727320957        4.0871687596
  O        21.6912273919       -0.0693434409       11.8957638926
  O        51.3648452591       18.6144086605        4.0052754000
  O        10.7509145392       18.7471713481       11.9050290014
  O        50.0795348237       16.4127006864        4.0916819617
  O         9.5244189803       16.4831367227       11.9911954429
 Zr         9.2974759472       16.0529301085        6.1823088744
 Zr        49.8362744731       16.0069696926        9.7464490772
 Zr        22.0730646465        0.0294128245        6.1891476556
 Zr        42.4607235152       35.1532602272        9.8008111838
 Zr        29.5746593408       19.0446280234        6.2633911686
 Zr        29.5369258124       19.1662158897        9.9650546953
 Zr        11.0381993682       19.0521583911        9.8278554820
 Zr        11.0439540689       19.1550472086        6.2510542762
 Zr        31.3164438003       16.0809465584        9.9364535085
 Zr        31.4154559021       15.9578938150        6.3836016875
 Zr        18.6006490668       -0.0023219347        9.7636081280
 Zr        18.5063775235       -0.0084992350        6.2132889134
 Zr        12.3019957983       16.3235063588        7.9907879775
 Zr        48.6166175379       18.8330159793        8.0101288524
 Zr        20.3142826122        2.4728133696        7.9907531897
 Zr        40.6426845331       32.6863926449        7.9782861862
 Zr        28.3280318917       16.3352559598        8.0928129535
 Zr        32.5815349118       18.8334306493        8.0822404708
  H        29.2018114676       17.4206347776        1.6708438996
  H        32.5101156439       16.3032908662       12.4268351354
  H        31.8042125952       16.1628210671        3.2407767486
