     563
 i =       26, E =     -4694.9888767191
  C        11.8586801951       14.0534254900        21.731327124538
  C        12.4560738913       12.8904395521        21.013066423138
  C        11.7043963997       12.1716348070        20.071295886938
  C        12.2807225087       11.1093989769        19.378961127138
  C        13.6212379373       10.7394167488        19.606792739538
  C        14.3543922329       11.4428877981        20.580350553938
  C        13.7815527766       12.5078898239        21.271860112738
  C        14.2606694483        9.6486946981        18.833394618238
  C        14.2558401035        9.6565435126        17.411691481038
  C        13.7427112261       10.7586773058        16.657777120838
  C        49.1266209877       21.2333592722        21.869549839638
  C        48.5497485508       22.4012232611        21.142495203538
  C        49.2997618907       23.0685101422        20.161456346438
  C        48.7327971101       24.1075731410        19.428191405038
  C        47.4022535046       24.5092016688        19.656816342238
  C        46.6713220321       23.8603778845        20.670382345338
  C        47.2338012129       22.8155281888        21.399791155938
  C        46.7720226681       25.5868724039        18.859517868938
  C        46.7610341251       25.5572488957        17.437759927138
  C        47.2609957249       24.4421714458        16.694262734338
  C        14.8596149181        8.5701162299        16.698421256438
  C        14.8915204666        8.5967791014        19.510037639138
  C        49.1129581662       21.2034498800       10.1453149563
  C        48.5275717317       22.3648315343       10.8723846533
  C        49.2667327346       23.0253624988       11.8654767820
  C        48.6904170146       24.0599018369       12.5969564093
  C        47.3600867158       24.4568621031       12.3585617337
  C        46.6397770801       23.8121764757       11.3348178168
  C        47.2133115317       22.7762808415       10.6030056253
  C        46.7216252338       25.5317850528       13.1496184731
  C        46.7333142775       25.5280959965       14.5713226590
  C        47.2487381100       24.4288791522       15.3277100186
  C        40.6163834157       17.0875742469       15.3183050703
  C        40.6331727653       17.1226954659       12.5079716029
  C        11.8828340180       14.0863732403       10.2855237525
  C        12.4719572285       12.9104805637       10.9896946596
  C        11.7144022829       12.1774696206       11.9159351358
  C        12.2808509071       11.0949382440       12.5843350797
  C        13.6195740699       10.7209094972       12.3523800984
  C        14.3575637556       11.4362672358       11.3914262559
  C        13.7922714704       12.5175017965       10.7187287975
  C        14.2530693415        9.6241144665       13.1228131718
  C        14.2517873665        9.6440862378       14.5446554195
  C        13.7420734612       10.7531029080       15.2917324376
  C        22.5100115151        3.2427591422        21.740543276838
  C        23.2223544271        4.3441022214        21.034104835738
  C        24.2156175260        4.0567520622        20.086222095038
  C        24.8442511168        5.0911893486        19.398597067438
  C        24.4947237603        6.4347643657        19.638624795938
  C        23.5279875236        6.7135383023        20.621988875138
  C        22.8950082450        5.6808999498        21.308551825038
  C        25.1073713286        7.5368075016        18.863318268938
  C        25.0917779169        7.5283648155        17.441858581638
  C        24.3904000102        6.5317224622        16.691869331038
  C        38.3008005826       31.9267000948        21.838110350038
  C        37.5667790777       30.8371849561        21.129166170738
  C        36.6048569591       31.1429887784        20.153778003738
  C        35.9806689427       30.1248917599        19.437454548838
  C        36.3019998418       28.7735166840        19.673348706138
  C        37.2347264519       28.4751878045        20.684968078638
  C        37.8631534747       29.4922198520        21.400325489638
  C        35.6920964829       27.6837733723        18.875455859038
  C        35.7250422707       27.6978195309        17.453333937538
  C        36.4342483703       28.6978980594        16.716114283238
  C        25.7238809568        8.5959700153        16.726184731738
  C        25.6995737191        8.6118272012        19.537494569038
  C        38.3273553498       31.9604412977       10.1569473208
  C        37.6034830001       30.8865828212       10.8983919122
  C        36.6729989107       31.1950641560       11.9028185186
  C        36.0590517891       30.1769815079       12.6304262319
  C        36.3601945871       28.8232330541       12.3784176099
  C        37.2687815598       28.5248102917       11.3441597604
  C        37.8848622321       29.5394920441       10.6176743997
  C        35.7473324378       27.7245169261       13.1618533150
  C        35.7532396896       27.7185981272       14.5845539315
  C        36.4469205854       28.7084243063       15.3494315111
  C        46.1352761187       26.6207136448       15.2814630290
  C        46.0877104182       26.5801729492       12.4735736138
  C        22.4643339354        3.2550089290       10.2544882730
  C        23.1679839499        4.3612883764       10.9707159071
  C        24.1778308718        4.0702964190       11.9017114839
  C        24.8152075385        5.0973379557       12.5931882523
  C        24.4624350089        6.4442440281       12.3764520716
  C        23.4763328069        6.7286921702       11.4131262961
  C        22.8345891647        5.7018407330       10.7215007515
  C        25.0986475179        7.5377237378       13.1521753440
  C        25.0872705250        7.5288888619       14.5744333079
  C        24.3861178678        6.5333939975       15.3255014210
  C        26.5610498754       17.8256947285        21.775115472038
  C        25.2612626843       17.8890891496        21.048897580538
  C        25.0109572301       18.8965116468        20.104385069438
  C        23.8028367624       18.9244727634        19.412089236438
  C        22.8129868730       17.9490510510        19.644940445338
  C        23.0583916144       16.9657099245        20.621401849038
  C        24.2678401465       16.9320990898        21.311253813938
  C        21.5470981359       17.9404248431        18.873998303738
  C        21.5554391678       17.9279106509        17.452208318338
  C        22.7651819160       17.8106042957        16.697457280338
  C        34.4157440722       17.2138650300        21.901865330438
  C        35.7107700628       17.1457623587        21.163147705138
  C        35.9074492595       16.1752042310        20.168397906638
  C        37.0910756165       16.1486027830        19.435354490038
  C        38.1095060471       17.0924110899        19.674007934238
  C        37.9150666312       18.0422635903        20.695402785338
  C        36.7302070517       18.0731449318        21.427476680338
  C        39.3640436179       17.0951203074        18.885659945638
  C        39.3593272573       17.1033758619        17.463087189438
  C        38.1517151078       17.2172084547        16.704654087638
  C        20.3116402963       17.9470305067        16.740127837838
  C        20.3215797291       17.9359981330        19.552690676138
  C        34.4433050281       17.2446480435       10.1830492861
  C        35.7440686436       17.1454506705       10.9079607301
  C        35.9657377196       16.1451156170       11.8669099745
  C        37.1538211338       16.1181338655       12.5936671251
  C        38.1528987046       17.0876627587       12.3786629542
  C        37.9397799962       18.0602083562       11.3836828382
  C        36.7497389740       18.0940049080       10.6624655780
  C        39.4020756168       17.1013382906       13.1736408395
  C        39.3787201084       17.1059509466       14.5951082883
  C        38.1608738266       17.2152961759       15.3378754874
  C        35.1184376432       26.6412917292       15.2882032950
  C        35.1564821148       26.6537269623       12.4784238899
  C        26.5628513153       17.8248570958       10.3269700515
  C        25.2503477159       17.8752828594       11.0302807664
  C        24.9782680284       18.8963494843       11.9530342433
  C        23.7603383405       18.9243409993       12.6255494146
  C        22.7863717513       17.9331038321       12.3952621418
  C        23.0514666515       16.9373478341       11.4380331179
  C        24.2708864401       16.9057126213       10.7655308987
  C        21.5219199054       17.9193193636       13.1652495076
  C        21.5419149864       17.9153086396       14.5862851618
  C        22.7587496542       17.8042666623       15.3312271536
  C        14.0450419959       17.8313453648       10.2845278370
  C        15.3507073771       17.8942450289       11.0027170478
  C        15.6092511208       18.9058361618       11.9403547255
  C        16.8194555644       18.9307216935       12.6295968189
  C        17.8022046011       17.9466632475       12.4020104965
  C        17.5494494012       16.9605255918       11.4303417263
  C        16.3388110515       16.9312502420       10.7424330235
  C        19.0681481998       17.9301404445       13.1724170867
  C        19.0607015703       17.9288765904       14.5940078542
  C        17.8500051059       17.8306810538       15.3494615205
  C        46.8026538694       17.2182093418       10.1593129626
  C        45.5108704142       17.1531958317       10.9046679542
  C        45.3065741664       16.1748490585       11.8903160680
  C        44.1236889398       16.1513412154       12.6250585297
  C        43.1130054755       17.1061387658       12.3974525924
  C        43.3148403192       18.0643860004       11.3853645719
  C        44.4986209765       18.0917618314       10.6514588935
  C        41.8582844615       17.1106468821       13.1860758033
  C        41.8631012146       17.1075413659       14.6087061877
  C        43.0713547819       17.2070268121       15.3680762774
  C        20.3044750171       17.9399893226       15.3062842858
  C        20.2934049640       17.9065769455       12.4938391851
  C        46.7828242897       17.2310820973        21.877846581038
  C        45.4783038798       17.1228060984        21.162163355338
  C        45.2606395722       16.1234120085        20.201319279738
  C        44.0713620257       16.0919925897        19.476625191038
  C        43.0683349225       17.0567186575        19.694769984538
  C        43.2766788406       18.0262038197        20.693830856438
  C        44.4672761079       18.0640646495        21.413577784838
  C        41.8202210335       17.0735209160        18.898329519638
  C        41.8437854661       17.0868107018        17.476854682438
  C        43.0621044074       17.1944578960        16.734745569738
  C        46.1530342674       26.6371333844        16.716009832838
  C        46.1620821232       26.6559962315        19.525644447338
  C        14.0401883979       17.8290436613        21.696592314038
  C        15.3544336814       17.8998081288        20.997613166638
  C        15.6228604555       18.9209140232        20.074175304938
  C        16.8470152258       18.9591534860        19.411849882438
  C        17.8272677064       17.9753049071        19.648839449838
  C        17.5646219098       16.9806025467        20.607822007838
  C        16.3426282493       16.9419960208        21.273969242338
  C        19.0930836346       17.9570385290        18.881030657438
  C        19.0738533088       17.9424092044        17.460100597338
  C        17.8564149186       17.8367893817        16.715479227438
  C        28.8096986070       14.0832785274       10.3655760901
  C        28.2138781614       12.9046422104       11.0551195452
  C        28.9465241207       12.1728436713       12.0010782288
  C        28.3570550799       11.0960967486       12.6591151330
  C        27.0223680633       10.7278191428       12.3939652700
  C        26.3127669165       11.4397230088       11.4101411669
  C        26.8989421671       12.5168775597       10.7516478666
  C        26.3581434153        9.6459704497       13.1563095447
  C        26.3432091416        9.6696718716       14.5773049357
  C        26.8486721692       10.7796557022       15.3260565467
  C        32.1768025250       21.2374513903       10.1122428409
  C        32.7622417135       22.4024662948       10.8405927702
  C        32.0097408112       23.0764631639       11.8153133081
  C        32.5770686123       24.1133425094       12.5513511943
  C        33.9119008164       24.5075434251       12.3332678575
  C        34.6463052980       23.8517432284       11.3266216461
  C        34.0827718082       22.8085765593       10.5940217106
  C        34.5380701209       25.5843515364       13.1367974088
  C        34.5268498557       25.5574726152       14.5590482107
  C        34.0170954716       24.4432560493       15.2976257213
  C        25.7265424444        8.5926412322       15.2920292782
  C        25.7194337096        8.5983775082       12.4796624794
  C        32.0712673249       21.1902422246        21.829598035638
  C        32.6510258906       22.3575570163        21.099048313538
  C        31.9235113523       23.0110141932        20.092177387938
  C        32.5007686291       24.0537216344        19.370075673638
  C        33.8210864069       24.4715314271        19.631515233138
  C        34.5288296303       23.8332790251        20.668454568338
  C        33.9556385878       22.7885221400        21.388776760238
  C        34.4662114263       25.5535121486        18.850225725238
  C        34.4899840856       25.5420663655        17.427552548238
  C        33.9987182199       24.4362428501        16.664317150738
  C        40.6060072221       17.0814980614        16.753482363138
  C        40.5890416681       17.0956057029        19.563679351738
  C        28.7005271755       14.0576805608        21.808516442738
  C        28.1045932065       12.9084016619        21.067693934438
  C        28.8600907468       12.1964501360        20.123408993138
  C        28.2895255226       11.1384842567        19.420706369538
  C        26.9492956844       10.7640437204        19.640986909238
  C        26.2103314619       11.4614345614        20.614549975838
  C        26.7783428160       12.5218584566        21.316853139138
  C        26.3192277914        9.6712444599        18.863575318438
  C        26.3258611432        9.6820387376        17.442235665938
  C        26.8386669607       10.7864782360        16.691848994938
  C        18.1353876007        3.1809204587       10.3171346139
  C        17.4058729101        4.2780749948       11.0156767543
  C        16.3900456656        3.9995521325       11.9430311285
  C        15.7421585621        5.0394168593       12.6065500778
  C        16.0939933530        6.3831846284       12.3670253431
  C        17.0834728973        6.6528825569       11.4034103360
  C        17.7327318665        5.6156474669       10.7383400155
  C        15.4695190085        7.4907826233       13.1301082762
  C        15.4847177278        7.4900470428       14.5518278047
  C        16.1863164369        6.4964580473       15.3049901033
  C        42.9457635156       31.8595307569       10.0728241290
  C        43.6461256857       30.7718203592       10.8167774491
  C        44.5916328284       31.0931607709       11.8028561050
  C        45.1973267638       30.0876188635       12.5505363398
  C        44.8709006049       28.7345633025       12.3356623144
  C        43.9451053471       28.4202124350       11.3224300607
  C        43.3362961753       29.4253476256       10.5743734771
  C        45.4884563630       27.6552584943       13.1388559401
  C        45.4925974454       27.6808620336       14.5605486549
  C        44.8055077583       28.6889113270       15.3071685019
  C        14.8557970038        8.5625679788       15.2641942211
  C        14.8742690694        8.5625692655       12.4515259967
  C        42.9464316235       31.9615940285        21.798811617638
  C        43.6915818744       30.8854130218        21.085279647138
  C        44.6562577652       31.1912960949        20.113060903138
  C        45.2777472551       30.1716960727        19.395320617838
  C        44.9537990824       28.8214075484        19.632850932538
  C        44.0202114391       28.5237491882        20.643528510738
  C        43.3920015442       29.5405368038        21.355722684538
  C        45.5628032314       27.7239964865        18.847594322138
  C        45.5330694524       27.7172906687        17.426301103338
  C        44.8267821611       28.7075478728        16.673352876438
  C        35.1019707980       26.6321354773        16.723850553238
  C        35.0794349239       26.6112390452        19.534353200838
  C        18.1485691965        3.2468589170        21.696415311538
  C        17.4299145370        4.3436455642        20.987091020138
  C        16.4145325100        4.0523018211        20.063732122238
  C        15.7661169765        5.0828872524        19.388370282538
  C        16.1208560159        6.4281385277        19.610887201038
  C        17.1124644733        6.7115864478        20.567885139838
  C        17.7602382514        5.6827269112        21.247646692338
  C        15.4902228496        7.5237772469        18.838446047938
  C        15.4959321437        7.5070650651        17.417305638938
  C        16.1925934598        6.5053018316        16.670596743338
  H        10.6723183028       12.4658829100        19.894188113038
  H        11.6944449299       10.5509866750        18.652361901638
  H        15.3913906772       11.1682064044        20.762145000138
  H        14.3510305081       13.0709859641        22.007386573838
  H        13.3759184413       11.6309071267        17.191063175438
  H        50.3224800391       22.7484925124        19.976738506838
  H        49.3192667348       24.6228270137        18.670593757538
  H        45.6418403137       24.1611812923        20.853562549338
  H        46.6628169672       22.2903179491        22.161928752538
  H        47.6295676989       23.5758052857        17.235941747538
  H        14.8720447735        8.5881090195        20.598348747538
  H        50.2867095365       22.7023649135       12.0605039007
  H        49.2687684923       24.5752278134       13.3605774335
  H        45.6104697769       24.1096413449       11.1455773171
  H        46.6525669417       22.2543048309        9.8312588617
  H        47.6075618788       23.5517739547       14.7968227612
  H        40.6388045892       17.0951779956       11.4199481495
  H        48.6870315468       14.0951624751        23.789769654438
  H        10.6810105106       12.4667498858       12.0934447314
  H        11.6890344839       10.5246685148       13.2971088226
  H        15.3929413923       11.1582242831       11.2054191880
  H        14.3647032243       13.0867237187        9.9901557123
  H        13.3753865523       11.6217787470       14.7531024008
  H        47.9301085544       14.2184615916        9.7109469556
  H        47.7799752807       14.3740064722        22.485084453938
  H        49.0828869402       18.5523100113       10.8672294848
  H        10.4159362523       14.1343268191        7.9988202279
  H        24.4730531858        3.0165208639        19.899914533138
  H        25.6159503908        4.8687125860        18.664862344438
  H        23.2508235882        7.7482284797        20.812742461238
  H        22.1271930416        5.8862670126        22.050469181238
  H        23.8234532686        5.7768856215        17.228932962938
  H        36.3704844762       32.1868408359        19.958751326538
  H        35.2350031316       30.3681974144        18.683699137838
  H        37.4920501798       27.4353455107        20.875889447438
  H        38.6080311177       29.2670618760        22.160022875838
  H        36.9999178895       29.4470463581        17.262461171338
  H        25.7234111540        8.5977247815        20.625624532038
  H        36.4510283711       32.2393306453       12.1109633601
  H        35.3322280644       30.4237792041       13.4011970438
  H        37.5146589835       27.4844979664       11.1414315364
  H        38.6081330521       29.3120395845        9.8383038827
  H        37.0234228692       29.4651954413       14.8252197766
  H        46.1091741638       26.5876308048       11.3855393326
  H        44.6682261426       35.1161429210        23.803878272038
  H        24.4530518694        3.0308209610       12.0650522959
  H        25.6009323299        4.8654853543       13.3090589710
  H        23.1929812192        7.7644559326       11.2373443252
  H        22.0571317272        5.9180024923        9.9923554507
  H        23.8153902907        5.7802824490       14.7900235862
  H        44.9535348802       34.3899786527        9.6948705976
  H        44.9017529749       34.2067236764        22.480591855438
  H        40.6653766152       33.2086088550       10.8529018979
  H        23.1504459405        1.9576597104        8.0041434105
  H        25.7718524457       19.6535032319        19.928827757238
  H        23.6102426047       19.7096754213        18.684232601938
  H        22.3027667105       16.2051849608        20.807117464238
  H        24.4726257949       16.1599613991        22.049058079838
  H        23.7046904809       17.6920006019        17.229552983338
  H        35.1141772053       15.4563663927        19.976427524238
  H        37.2412940955       15.3878546675        18.672465108138
  H        38.6919750608       18.7800309972        20.885099352438
  H        36.5652581717       18.8223413280        22.198388871038
  H        37.2112825390       17.3383948312        17.234713240438
  H        20.3245253015       17.9682705548        20.640746183238
  H        35.1937457220       15.3983225270       12.0383571932
  H        37.3216287340       15.3404013303       13.3355912733
  H        38.7043616665       18.8147737969       11.2106842870
  H        36.5654462930       18.8632743052        9.9163816777
  H        37.2271883618       17.3333151421       14.7954291213
  H        35.1318716420       26.6791850108       11.3905957582
  H        28.5041489944       21.0749979571        23.870507989138
  H        25.7320681371       19.6609723516       12.1253363196
  H        23.5482694231       19.7177496975       13.3389078358
  H        22.3058665768       16.1660630687       11.2563027685
  H        24.4940604578       16.1251084475       10.0422488515
  H        23.6932657667       17.6816072042       14.7914880857
  H        29.0090322051       21.7109756802        9.7385127007
  H        29.2001605350       21.6984282064        22.542040023438
  H        32.1055117560       18.6240134230       10.8908511315
  H        27.3720131450       19.0290707304        8.0767177621
  H        14.8510979903       19.6662081657       12.1136944083
  H        17.0186792059       19.7193755921       13.3519624785
  H        18.3000354011       16.1943503170       11.2473525100
  H        16.1289435250       16.1572181095       10.0081537420
  H        16.9097489047       17.7171689563       14.8178685494
  H        46.0920373937       15.4455006815       12.0740486120
  H        43.9680829309       15.3841455593       13.3804140434
  H        42.5442095991       18.8107676410       11.2038825946
  H        44.6685987207       18.8465395869        9.8871284627
  H        44.0126254426       17.3259944844       14.8390936279
  H        20.2911052977       17.9321100950       11.4056176219
  H        46.0392853675       15.3851008332        20.023585285338
  H        43.9071141155       15.3158743754        18.732243508538
  H        42.5084707225       18.7763214672        20.869936315638
  H        44.6476340975       18.8320354563        22.161833373838
  H        43.9965002947       17.3025225698        17.277915281838
  H        46.1989364978       26.6825646177        20.613088386538
  H        52.7412767226       21.0626930350        8.1946323379
  H        14.8628672687       19.6779347622        19.894098784038
  H        17.0578173374       19.7538836021        18.699519617838
  H        18.3147412652       16.2150521428        20.795095216938
  H        16.1222392759       16.1633134822        22.000072680338
  H        16.9210124006       17.7279251651        17.256158335638
  H        52.3225762983       21.6737243001        22.284434138838
  H        52.0136876023       21.7026969382        9.4954929767
  H        49.0672070092       18.6077694996        21.194062045138
  H        13.2472961526       19.0162415885        23.966049267738
  H        29.9736744939       12.4660476544       12.2069720861
  H        28.9253257189       10.5276086607       13.3921233580
  H        25.2815580203       11.1647679665       11.1984745832
  H        26.3476441908       13.0889095918       10.0095213423
  H        27.2170263953       11.6487087291       14.7889667306
  H        30.9832835238       22.7631450087       11.9911212547
  H        31.9873181293       24.6336328340       13.3029565274
  H        35.6792283520       24.1452468366       11.1508081743
  H        34.6574163510       22.2787375082        9.8377629148
  H        33.6652503425       23.5724669444       14.7517624667
  H        25.7501214683        8.5819459482       11.3916350757
  H        30.9097673096       22.6791511910        19.879419535838
  H        31.9282473279       24.5601187263        18.596032889538
  H        35.5504843552       24.1429408177        20.878715867038
  H        34.5104140659       22.2749481652        22.170378243038
  H        33.6330266753       23.5595559391        17.191344760938
  H        40.5830442019       17.0610052253        20.651484323038
  H        32.5131593225       14.1488914775        8.2414684714
  H        29.8968347050       12.4809983240        19.959747061238
  H        28.8811363470       10.5832554449        18.696065033238
  H        25.1730713756       11.1834756516        20.789723783738
  H        26.2051594300       13.0775644073        22.055039022738
  H        27.1985250199       11.6606260481        17.226896630738
  H        33.2988768035       14.2263839631        22.432191869638
  H        33.4069110696       14.3991008614        9.5989821313
  H        32.0524243154       18.4727768893        21.073097548538
  H        30.2092758662       14.1395094332        8.0758924442
  H        16.1180649781        2.9630074012       12.1293179625
  H        14.9526383256        4.8199042355       13.3220921356
  H        17.3659129287        7.6857892721       11.2104712119
  H        18.5148639431        5.8184514765       10.0106339233
  H        16.7528797042        5.7391301015       14.7714807092
  H        44.8278830722       32.1402515752       11.9770360073
  H        45.9371769869       30.3413744280       13.3064951947
  H        43.6824280082       27.3781399473       11.1523131246
  H        42.5996913163       29.1900345493        9.8096885238
  H        44.2302102221       29.4367148151       14.7688524769
  H        14.8506211710        8.5458534198       11.3633028027
  H        44.8999121607       32.2339716508        19.921718176638
  H        46.0247272770       30.4128976018        18.642147398538
  H        43.7631270598       27.4840323278        20.834996503638
  H        42.6454178270       29.3177866539        22.114100068038
  H        44.2683088196       29.4704543775        17.207947720138
  H        35.0339804953       26.6249527760        20.621739706638
  H        36.6052218946       35.1338870363        8.1807189823
  H        16.1433818235        3.0127156599        19.894175499138
  H        14.9736489966        4.8559934836        18.678461105238
  H        17.3961074145        7.7470522514        20.744568238838
  H        18.5432943185        5.8932533459        21.972192925638
  H        16.7641043355        5.7551109459        17.209022178938
  H        36.2788987917       34.4819691571        22.263049208838
  H        36.3810098988       34.2090762255        9.4997935046
  H        40.5796129150       33.2023512540        21.143667201138
  H        17.4710408323        1.9473755854        23.963829514638
  H        28.7595865396       18.8367783399       12.2650925055
  H        28.7061160970       18.6908172110        19.764467298438
  H        30.7768535638       15.3931267338        19.776181103438
  H        32.3643313432       16.5126983478       12.2899400954
  H        29.5984488323       19.0287607357       14.8275532879
  H        18.8531743474        0.8688064410       12.3351905800
  H        40.5281445024       35.2288168351        19.941877090738
  H        42.3233864887       34.4182340245        19.580335950638
  H        22.0873007165        0.6922668183       12.3515650039
  H        11.5967412260       18.7126164442       12.3824563506
  H        52.2652587633       18.4312190387        19.667701731138
  H        49.2551961289       16.4767084337        19.573978030538
  H        10.1504029237       15.7982866186       12.2924439975
  H        50.8502902213       17.6928065074        19.943794876338
  H        10.0460232240       17.3947580912       12.0518844379
  H        20.2144480950        0.0019898747       12.0420162644
  H        39.1835944338       36.1243260340        19.676320486138
 Ni        30.3161672985       17.4440894146        18.659051220438
 Ni        30.8999719103       15.9916965431       14.905517276638
 Ni        29.8411650594       17.2329505241        16.400999509938
 Ni        30.3548818037       17.4213873586       13.2455985209
  O        10.6498930970       14.3651944152        21.475579072138
  O        12.6130918274       14.6573936459        22.573666671038
  O        49.1475881729       16.8459212130        23.979476015838
  O        50.3500941685       20.9362497855        21.638007744438
  O        48.3484669767       20.5932378286        22.655762654838
  O        11.0509353425       17.0540538761        22.490449165238
  O        50.3207031546       20.8816998082       10.4068860359
  O        48.3466042521       20.5866655905        9.3270453597
  O        49.5432571240       18.2483964820       10.0683034061
  O        12.3587772529       18.6246904035        7.9996809222
  O        48.6931526117       14.1486711768        22.741048729338
  O         8.2097989527       14.2104981305        9.3225867526
  O        10.7352450945       14.5067893356       10.6643673907
  O        12.5716992410       14.5826952085        9.3285675463
  O        22.8440537556        2.0413755379        21.477268447438
  O        21.6058298848        3.5923277041        22.578832453838
  O        42.0579646179       34.1371791279        23.968878466138
  O        37.9812744723       33.1353629378        21.561752956538
  O        39.2174500259       31.5749168659        22.655386144138
  O        20.3083674924        1.0397415579        22.491800322338
  O        38.0240521885       33.1845553709       10.4156616214
  O        39.2183569212       31.5829335493        9.3272004013
  O        40.6521127873       33.7691576235       10.0601815122
  O        18.2558209831        1.3763390053        7.9967757270
  O        44.6222383673       35.1004958619        22.748631296038
  O        24.2054313671       -0.0000678456        9.3207867629
  O        22.7530946466        2.0568398672       10.5832193018
  O        21.6246648831        3.5960770347        9.3428367116
  O        27.4612880077       18.6934918474        21.474977133838
  O        26.6902341952       16.9191729888        22.658460818338
  O        30.6279104272       19.3462933214        7.9958981713
  O        33.5381027311       16.3266603929        21.645522219338
  O        34.2672834990       18.1780611404        22.732006509538
  O        29.5314151963       17.0081061087        22.567818962438
  O        33.5539893566       16.3434690557       10.4219570680
  O        34.2978244038       18.2384472742        9.4020268509
  O        31.6488899744       18.3213295286       10.0897424737
  O        30.2906154480       15.1068208639        8.0768881215
  O        28.5519662521       21.0248114665        22.818789390838
  O        28.5103638845       20.9492226236        9.3980194830
  O        27.4535793675       18.6793441539       10.6564879698
  O        26.6891989285       16.9286851565        9.4174655124
  O        13.1466359831       18.6936482156       10.5862950119
  O        13.9177053780       16.9159134197        9.4038987612
  O        50.5957753518       19.3502705934        8.0206576712
  O        47.6819443316       16.3274626517       10.4177507330
  O        46.9500565392       18.1757091398        9.3256224769
  O        11.0689083393       17.0159164288        9.4895701071
  O        47.6742244342       16.3360126185        21.642396689838
  O        46.9248793598       18.2359553975        22.653081849738
  O        49.5686795862       18.3177671144        21.972088492938
  O        10.3186322256       15.1001830109        7.9971065857
  O        52.6707097623       21.0279933998        9.2418079985
  O        12.1468144847       20.8914353861        22.663136661038
  O        13.1048025453       18.6142581132        21.316083835238
  O        13.9552451208       16.9865361596        22.655261977238
  O        29.9979343060       14.4394364274       10.6688276634
  O        28.0729672983       14.6539082226        9.4898772804
  O        32.0704058787       16.8539249580        8.0644566882
  O        30.9560011600       20.9468748509       10.3429067444
  O        32.9537166935       20.5917137913        9.3246197832
  O        29.5601771590       17.0619304144        9.5692611544
  O        30.8524185598       20.8720050870        21.573598376438
  O        32.8528239952       20.5848086374        22.643084856538
  O        31.6120625507       18.2383693735        21.906678268238
  O        28.2566709326       18.6284638418        8.0638129446
  O        32.4915351028       14.2127426615        9.3224513129
  O        32.4035500581       14.2158674724        22.810081844538
  O        29.8855601118       14.4237097350        21.487306709838
  O        27.9759524826       14.5819757253        22.728556295438
  O        17.8892373400        1.9665434050       10.6627979987
  O        18.9562237572        3.5271325946        9.4079985378
  O        39.1684759267       34.1385989787        7.9971802520
  O        43.2802003941       33.0588915090       10.3317064350
  O        42.0343654314       31.5064418269        9.2416035961
  O        20.3174190395        1.0364608237        9.4800838361
  O        43.2760974965       33.1825187218        21.564654994038
  O        42.0052194461       31.5841393684        22.572794964138
  O        40.5790002167       33.7750612423        21.925776647138
  O        22.3672140111        1.3845773547        7.9980002230
  O        36.6728161799       35.0997137792        9.2333309659
  O        16.4456569768        0.0640424031        22.657984501138
  O        17.9364263656        2.0432181856        21.316211743738
  O        18.9190677250        3.5931353223        22.655674742738
  O        29.6581473117       18.6918248144        19.984624369738
  O        29.6956854910       18.7653093938       11.9920952933
  O        31.1257621530       16.2595280963        20.058530487438
  O        31.4274081283       16.3465691362       12.0803686045
  O        29.3232403360       18.0943565604       14.7483202580
  O        39.4567141807       35.2436728502        19.991824809938
  O        19.1410599589        0.0042897888       11.9905422048
  O        41.9692644710       35.1722990729        20.076857728738
  O        21.6911803054       -0.0693531879       11.8959915822
  O        51.3651784734       18.6144143455        19.995076555338
  O        10.7509006973       18.7471510147       11.9050063638
  O        50.0794614815       16.4127850111        20.081537519238
  O         9.5243450595       16.4831117552       11.9912076434
 Zr         9.2970111790       16.0528992204        22.171993874438
 Zr        49.8363937203       16.0069231366        9.7465696330
 Zr        22.0732271862        0.0297680048        22.178932670738
 Zr        42.4608485460       35.1535485234        9.8010916518
 Zr        29.5657321643       19.0345766481        22.210423556038
 Zr        29.5664919950       19.1666566033        9.8276978405
 Zr        11.0377327105       19.0523424045        9.8278216446
 Zr        11.0437067282       19.1551746666        22.240918793938
 Zr        31.3234674129       16.0855889199        9.8539010908
 Zr        31.3481060293       15.9953717660        22.247952938738
 Zr        18.6011692240       -0.0015033248        9.7634589541
 Zr        18.5065942591       -0.0078837869        22.203401044638
 Zr        12.3014397724       16.3232772904        23.980298368538
 Zr        48.6162755914       18.8329614160        8.0101914091
 Zr        20.3153420326        2.4737335180        23.980410886638
 Zr        40.6430498468       32.6869014809        23.967949040838
 Zr        28.3154883093       16.3155090411        8.0843165620
 Zr        32.5996253588       18.8315185274        8.0206282119
  H        30.2849556800       16.2567309510        17.541208986738
