     568
 i =      136, E =     -4744.4319304082
  C        11.8587122340       14.0535780215        21.731351983838
  C        12.4562512558       12.8906461267        21.013034292638
  C        11.7045723836       12.1717078297        20.071374616738
  C        12.2809624021       11.1094995113        19.379035568738
  C        13.6215365684       10.7397151199        19.606788300038
  C        14.3547005952       11.4433176493        20.580234232038
  C        13.7817991726       12.5082992410        21.271727866338
  C        14.2610717192        9.6490388471        18.833409273938
  C        14.2564140443        9.6569637549        17.411710792038
  C        13.7432459056       10.7590906744        16.657810910738
  C        49.1266347512       21.2332576561        21.869551673538
  C        48.5498389942       22.4011456136        21.142458443238
  C        49.2998791054       23.0684442738        20.161450615538
  C        48.7329499356       24.1075561558        19.428222328838
  C        47.4024084557       24.5092042169        19.656831553438
  C        46.6714391130       23.8603421823        20.670342049538
  C        47.2338854575       22.8154563889        21.399726419538
  C        46.7722058737       25.5869025015        18.859534273038
  C        46.7612718810       25.5573095062        17.437770240338
  C        47.2611863368       24.4422040179        16.694280743838
  C        14.8603619071        8.5706276783        16.698451296638
  C        14.8918221663        8.5970770734        19.510063285138
  C        49.1131671088       21.2034141692       10.1453425217
  C        48.5278160300       22.3647772225       10.8724806197
  C        49.2670549192       23.0254735688       11.8654057371
  C        48.6907379864       24.0600330028       12.5968640274
  C        47.3603325132       24.4568323108       12.3586150011
  C        46.6399108335       23.8119428058       11.3350864135
  C        47.2134435488       22.7760203792       10.6033083134
  C        46.7218990813       25.5318138341       13.1496346647
  C        46.7335996901       25.5281628455       14.5713382708
  C        47.2489618627       24.4289201322       15.3277271176
  C        40.6208340108       17.0821129414       15.3083162578
  C        40.6309888468       17.0979548965       12.4984469151
  C        11.8829428308       14.0865565978       10.2855017271
  C        12.4722861799       12.9107573770       10.9897456201
  C        11.7147918177       12.1775951673       11.9159005954
  C        12.2813773703       11.0951377712       12.5843173666
  C        13.6201795187       10.7213742526       12.3524518897
  C        14.3581294459       11.4368990275       11.3915985794
  C        13.7927044321       12.5180725892       10.7189077012
  C        14.2537973422        9.6246256294       13.1228547576
  C        14.2525663326        9.6446116295       14.5446934143
  C        13.7427015347       10.7535645565       15.2917666447
  C        22.5114841720        3.2444335344        21.741864465838
  C        23.2254798351        4.3486377608        21.039647151038
  C        24.2218990239        4.0660891221        20.093560845038
  C        24.8499791387        5.1036940270        19.409537054138
  C        24.4972594688        6.4463058011        19.651160427538
  C        23.5283403398        6.7203730422        20.633739332138
  C        22.8957905738        5.6845492734        21.316372686738
  C        25.1057038478        7.5514108976        18.875424980838
  C        25.0832692064        7.5431659212        17.453636818638
  C        24.3842783830        6.5433338853        16.705183229438
  C        38.3021749765       31.9291544789        21.838986512938
  C        37.5716330713       30.8397103911        21.130034999838
  C        36.6094102048       31.1437356363        20.154851674938
  C        35.9911078094       30.1237492657        19.437006425438
  C        36.3204151425       28.7744968484        19.672339865938
  C        37.2528857608       28.4778414364        20.684228381438
  C        37.8750489216       29.4965428579        21.401214913638
  C        35.7184704338       27.6831520656        18.873871340438
  C        35.7489201829       27.7005811225        17.452412345738
  C        36.4514639091       28.7059057627        16.715941235938
  C        25.7080392941        8.6131006959        16.735166188238
  C        25.7006165372        8.6269524608        19.547472534738
  C        38.3287679451       31.9628737946       10.1556833774
  C        37.6063727131       30.8906187057       10.8970934778
  C        36.6763146165       31.2006538990       11.9010347656
  C        36.0652741566       30.1829423062       12.6305934287
  C        36.3705518157       28.8303657452       12.3794648182
  C        37.2781967402       28.5302958004       11.3453183472
  C        37.8911873203       29.5444490309       10.6168995424
  C        35.7624742155       27.7317080147       13.1633543567
  C        35.7711996181       27.7256833996       14.5852940094
  C        36.4618175526       28.7181788912       15.3493655914
  C        46.1355961523       26.6208060869       15.2814664134
  C        46.0879534926       26.5801718307       12.4735714632
  C        22.4633013091        3.2558066595       10.2564635984
  C        23.1632334374        4.3636627949       10.9758446778
  C        24.1703019128        4.0756996219       11.9108635299
  C        24.8035930797        5.1044426000       12.6042771524
  C        24.4499896799        6.4510314828       12.3858138913
  C        23.4664820316        6.7323550890       11.4186158173
  C        22.8288253651        5.7038604581       10.7253361429
  C        25.0829034668        7.5476065311       13.1611914022
  C        25.0724592645        7.5405541292       14.5840555226
  C        24.3773107777        6.5431437406       15.3384554264
  C        26.6201271134       17.8635175631        21.769554060438
  C        25.3124072004       17.9115895898        21.046062528938
  C        25.0474032099       18.9154736804        20.101121308438
  C        23.8340365257       18.9363250324        19.415824391438
  C        22.8481505275       17.9573823322        19.654562540338
  C        23.1084259395       16.9766957360        20.630329898138
  C        24.3240866985       16.9500516462        21.312424076938
  C        21.5750439341       17.9439663408        18.889895967238
  C        21.5760049623       17.9252482869        17.467407132138
  C        22.7825401730       17.8053047882        16.708029021938
  C        34.4378864039       17.1924773864        21.910144118338
  C        35.7303959512       17.1437875300        21.163239957938
  C        35.9348930494       16.1698170935        20.173180796438
  C        37.1149654784       16.1536011796        19.434704107938
  C        38.1231288773       17.1099800315        19.665665031538
  C        37.9206796969       18.0651687440        20.680008009238
  C        36.7378891481       18.0866439020        21.416235802138
  C        39.3766405675       17.1140162140        18.876895759938
  C        39.3692477262       17.1151170123        17.454903058038
  C        38.1602487267       17.2286029886        16.698837453438
  C        20.3299054247       17.9417168712        16.757892497038
  C        20.3499959158       17.9439125604        19.571445300238
  C        34.4385709075       17.2363364804       10.1886328559
  C        35.7395719117       17.1358532246       10.9119931440
  C        35.9466608262       16.1514619073       11.8896833891
  C        37.1379435809       16.1180377702       12.6106836929
  C        38.1507568585       17.0682358317       12.3743106377
  C        37.9497397158       18.0257615100       11.3625464293
  C        36.7581382660       18.0638016907       10.6445592945
  C        39.4010093246       17.0823733115       13.1663622724
  C        39.3816799024       17.0987517309       14.5877220740
  C        38.1659030981       17.2188953206       15.3323026070
  C        35.1432244777       26.6446937856       15.2884150666
  C        35.1747458774       26.6604360086       12.4791427384
  C        26.5738987657       17.8285340640       10.3256329791
  C        25.2589785888       17.8732097746       11.0337555010
  C        24.9925414565       18.8829650838       11.9708640579
  C        23.7748108871       18.9097829139       12.6451770348
  C        22.7935186924       17.9271681317       12.4050696833
  C        23.0542750705       16.9420212845       11.4355356491
  C        24.2730092475       16.9129425761       10.7600353712
  C        21.5292297242       17.9111467150       13.1773062561
  C        21.5524399191       17.9066329324       14.5988293885
  C        22.7707356877       17.7959888810       15.3417941624
  C        14.0468140130       17.8290176706       10.2888052095
  C        15.3514121256       17.8867385479       11.0140521453
  C        15.6082401322       18.8913656905       11.9601436285
  C        16.8172612563       18.9132499580       12.6529681319
  C        17.8039358673       17.9333415447       12.4220444563
  C        17.5518348464       16.9528203309       11.4438779505
  C        16.3422557541       16.9264144384       10.7525241397
  C        19.0729267355       17.9178512762       13.1914762319
  C        19.0709609174       17.9178865694       14.6140235890
  C        17.8636072946       17.8196517879       15.3748557283
  C        46.8025473314       17.2159764232       10.1566652093
  C        45.5090592270       17.1451767769       10.8967548270
  C        45.3044089898       16.1609233544       11.8763021438
  C        44.1204248315       16.1323973576       12.6085234477
  C        43.1100895855       17.0878986956       12.3839397885
  C        43.3112570365       18.0508310644       11.3763941348
  C        44.4962339533       18.0833025929       10.6449230742
  C        41.8569676667       17.0911255478       13.1740639474
  C        41.8659326105       17.0950049055       14.5963181729
  C        43.0763028911       17.1952791656       15.3521594833
  C        20.3173644972       17.9314555907       15.3230241109
  C        20.2975869139       17.8970367513       12.5099902462
  C        46.7851059688       17.2325337135        21.876004582438
  C        45.4838896918       17.1286462830        21.155434430838
  C        45.2659361489       16.1284617001        20.195560224538
  C        44.0788950146       16.1003558975        19.467433480438
  C        43.0794264254       17.0696428536        19.681105536838
  C        43.2887499674       18.0412221122        20.677814543838
  C        44.4767048050       18.0753599766        21.401522363138
  C        41.8315903997       17.0871361232        18.885544725038
  C        41.8531353715       17.0919360290        17.464134925438
  C        43.0703300171       17.1907625148        16.718998063338
  C        46.1533153917       26.6372170183        16.716014539438
  C        46.1622590240       26.6560273296        19.525656080538
  C        14.0451296105       17.8319477938        21.698722584238
  C        15.3658741019       17.9073053645        21.008158377738
  C        15.6385262760       18.9244015315        20.081219403338
  C        16.8672720530       18.9632067968        19.426141656738
  C        17.8507292738       17.9840933174        19.672364510938
  C        17.5849129250       16.9958375162        20.637565918738
  C        16.3581645709       16.9565209535        21.296169048238
  C        19.1179865951       17.9614695887        18.903639386838
  C        19.0944604323       17.9393383930        17.482150087638
  C        17.8750643301       17.8292121113        16.740866067938
  C        28.7940816306       14.1169365493       10.3994312501
  C        28.1949007261       12.9373940696       11.0882486504
  C        28.9230934799       12.1982204355       12.0319422386
  C        28.3320903848       11.1145063950       12.6775706203
  C        26.9986412984       10.7469461653       12.4049178515
  C        26.2927487483       11.4671552086       11.4245356455
  C        26.8816690001       12.5495424406       10.7764333178
  C        26.3339566011        9.6614909796       13.1626390652
  C        26.3177967804        9.6868197222       14.5835865574
  C        26.8170100729       10.8005414944       15.3307385916
  C        32.1804491337       21.2396790193       10.1447041920
  C        32.7765333060       22.4054411091       10.8630198871
  C        32.0272667629       23.0876925728       11.8338592845
  C        32.5981882616       24.1273713385       12.5614081455
  C        33.9339316222       24.5133397741       12.3380250813
  C        34.6657776630       23.8502978130       11.3351137622
  C        34.0972511901       22.8046336530       10.6099880706
  C        34.5619241077       25.5895007344       13.1379955917
  C        34.5544495485       25.5601446798       14.5594284913
  C        34.0505370991       24.4420545112       15.2959066076
  C        25.7071994334        8.6081466850       15.3005077202
  C        25.6996886901        8.6104318713       12.4871061728
  C        32.1198181022       21.1963624255        21.841930369038
  C        32.7090214663       22.3520201979        21.102154612238
  C        31.9780636201       23.0010985795        20.095180364938
  C        32.5525667432       24.0417029514        19.369189757938
  C        33.8731262230       24.4594492267        19.627985598738
  C        34.5861597165       23.8221493856        20.661456268738
  C        34.0149457500       22.7793147618        21.386402391138
  C        34.5099720014       25.5453230231        18.847918382538
  C        34.5278609382       25.5374686938        17.425914447138
  C        34.0380006542       24.4314297307        16.662342849938
  C        40.6140467329       17.0856812330        16.743197133438
  C        40.6019808251       17.1161177573        19.553336588538
  C        28.7249963360       14.0964553851        21.771106943238
  C        28.1204678397       12.9420635783        21.041311918338
  C        28.8612972505       12.2346273790        20.082260197338
  C        28.2854627112       11.1683605784        19.395651046238
  C        26.9520688427       10.7837315552        19.641622860838
  C        26.2289350926       11.4769788543        20.630159830038
  C        26.8040064200       12.5424579422        21.320122278338
  C        26.3138368285        9.6893770050        18.871257739838
  C        26.3084081003        9.7014033778        17.449479550838
  C        26.8104345439       10.8088352257        16.696322717938
  C        18.1354294488        3.1810229445       10.3171223298
  C        17.4060491187        4.2782727254       11.0156614321
  C        16.3904497419        3.9998777289       11.9432996898
  C        15.7427130511        5.0398357767       12.6068222918
  C        16.0944971666        6.3835768391       12.3670566720
  C        17.0836989496        6.6531286634       11.4031113253
  C        17.7328011111        5.6158090995       10.7380308732
  C        15.4702091948        7.4912709906       13.1301371232
  C        15.4855293627        7.4905928134       14.5518545268
  C        16.1870814272        6.4969779667       15.3050309595
  C        42.9458958540       31.8595028033       10.0728714497
  C        43.6462803090       30.7718538174       10.8168226715
  C        44.5918545559       31.0931865309       11.8028503271
  C        45.1975885382       30.0876422443       12.5504901001
  C        44.8711359926       28.7345784481       12.3356591631
  C        43.9452636019       28.4202280847       11.3224951697
  C        43.3364200422       29.4253682506       10.5744745071
  C        45.4887370624       27.6552882639       13.1388450992
  C        45.4929065181       27.6809337989       14.5605362434
  C        44.8058031136       28.6889788235       15.3071449321
  C        14.8565810994        8.5630946934       15.2642261307
  C        14.8749313594        8.5630526389       12.4515578823
  C        42.9464599347       31.9615714578        21.798734871838
  C        43.6916690579       30.8854627385        21.085237867938
  C        44.6562525249       31.1913620261        20.112922120438
  C        45.2777647040       30.1717654764        19.395206242038
  C        44.9539720708       28.8214469824        19.632836230538
  C        44.0204780610       28.5237911131        20.643607901838
  C        43.3922309766       29.5405647627        21.355783415938
  C        45.5630067691       27.7240436633        18.847594666138
  C        45.5333504654       27.7173820687        17.426296139938
  C        44.8270419420       28.7076100940        16.673329136638
  C        35.1307861493       26.6325793238        16.723161703138
  C        35.1165229731       26.6052736818        19.532846279838
  C        18.1486265255        3.2469787449        21.696438770638
  C        17.4300058905        4.3438456622        20.987187489538
  C        16.4148322710        4.0525695072        20.063580236338
  C        15.7665241742        5.0831989527        19.388180872738
  C        16.1211442739        6.4284400244        19.610938336438
  C        17.1124641824        6.7118239692        20.568258333238
  C        17.7601364862        5.6829151612        21.248036119438
  C        15.4906619752        7.5241423250        18.838482851338
  C        15.4965650995        7.5075165420        17.417344599038
  C        16.1933136430        6.5058090270        16.670638250938
  H        10.6724322606       12.4658140160        19.894370397538
  H        11.6946707002       10.5509838479        18.652524596338
  H        15.3917428869       11.1687506228        20.761948640238
  H        14.3512629596       13.0715667884        22.007132130938
  H        13.3762145818       11.6312010910        17.191130762138
  H        50.3225890261       22.7484040589        19.976730452738
  H        49.3194332795       24.6228137467        18.670638986238
  H        45.6419405475       24.1611054285        20.853494069938
  H        46.6628536291       22.2902357735        22.161821414138
  H        47.6296251466       23.5757834331        17.235964236238
  H        14.8721393731        8.5883151832        20.598369930638
  H        50.2870904161       22.7025994418       12.0603251590
  H        49.2691226674       24.5754654952       13.3603878336
  H        45.6104985500       24.1091674914       11.1460374866
  H        46.6525687099       22.2538467557        9.8317905034
  H        47.6076869414       23.5517734452       14.7968392483
  H        40.6344865027       17.0635137137       11.4106317976
  H        48.6871021194       14.0950102687        23.789827168038
  H        10.6813201933       12.4666659329       12.0933024858
  H        11.6895889842       10.5247362724       13.2970109847
  H        15.3935548688       11.1590006278       11.2056437097
  H        14.3650349326       13.0874401432        9.9903663413
  H        13.3758598974       11.6221693765       14.7531250070
  H        47.9301216019       14.2186002348        9.7107008953
  H        47.7799558119       14.3736868682        22.485130938138
  H        49.0827465630       18.5519106536       10.8670713464
  H        10.4160011158       14.1343720489        7.9987355987
  H        24.4820896797        3.0269167544        19.904914333638
  H        25.6233102182        4.8839841057        18.676658481238
  H        23.2482972887        7.7539168918        20.826553859838
  H        22.1258766461        5.8870354241        22.056921012738
  H        23.8219099270        5.7861005426        17.243695256838
  H        36.3710165764       32.1869531241        19.961497201538
  H        35.2446833358       30.3630735524        18.682783219338
  H        37.5147310038       27.4387771340        20.872998289038
  H        38.6205629750       29.2753234035        22.161321871038
  H        37.0143514608       29.4569170735        17.262536700238
  H        25.7318890815        8.6106154051        20.635423915438
  H        36.4533632530       32.2451221615       12.1068395301
  H        35.3383280058       30.4282051530       13.4016967549
  H        37.5252165354       27.4897913203       11.1452189195
  H        38.6145141024       29.3183784623        9.8372852023
  H        37.0337989996       29.4781184695       14.8248288313
  H        46.1093377875       26.5875470679       11.3855354620
  H        44.6681901537       35.1161163190        23.803755097338
  H        24.4472566245        3.0369353470       12.0760510491
  H        25.5875247047        4.8736475453       13.3224677935
  H        23.1817402938        7.7673508038       11.2405060960
  H        22.0537009826        5.9187246448        9.9933078780
  H        23.8091430727        5.7862905616       14.8054687130
  H        44.9535228777       34.3900588266        9.6949361142
  H        44.9014535271       34.2066999320        22.480415930238
  H        40.6658168459       33.2089738318       10.8529865135
  H        23.1507038703        1.9577308625        8.0046561240
  H        25.8026755639       19.6768452785        19.919994329038
  H        23.6341476592       19.7207420403        18.688927524538
  H        22.3589148597       16.2120050833        20.824036233338
  H        24.5356472156       16.1792294241        22.049840251738
  H        23.7233168099       17.6889435285        17.238308279538
  H        35.1511592161       15.4375770954        19.992986309438
  H        37.2727337853       15.3898888302        18.676219235338
  H        38.6902736296       18.8124101199        20.862512642738
  H        36.5659193220       18.8381273988        22.183472226938
  H        37.2224032418       17.3553803720        17.231870207538
  H        20.3559859042       17.9815630661        20.659398110938
  H        35.1564092893       15.4295198699       12.0822910846
  H        37.2966197315       15.3514890333       13.3660726759
  H        38.7247199513       18.7658354568       11.1740957101
  H        36.5830013660       18.8212230113        9.8843925096
  H        37.2321557844       17.3378333921       14.7902741817
  H        35.1477829528       26.6868021588       11.3914477635
  H        28.5067059507       21.0911727406        23.879387243738
  H        25.7520427530       19.6407815606       12.1499113891
  H        23.5675816704       19.6975315372       13.3663269216
  H        22.3048502418       16.1766491281       11.2442798060
  H        24.4899503861       16.1412801142       10.0252126178
  H        23.7025261653       17.6724777620       14.7981119944
  H        29.0064274735       21.7249115269        9.7424532989
  H        29.1723458484       21.7379259677        22.544928613538
  H        32.0674831623       18.5621311557       10.9900226567
  H        27.4039756755       19.0813499115        8.0852175126
  H        14.8498451116       19.6507073628       12.1372729589
  H        17.0124609958       19.6986692774       13.3799831868
  H        18.3029304109       16.1881631358       11.2564509666
  H        16.1363316597       16.1560807120       10.0131453097
  H        16.9213855824       17.7032671128       14.8472627549
  H        46.0907252115       15.4320009562       12.0577792877
  H        43.9638783711       15.3619184328       13.3603181359
  H        42.5394935001       18.7966536919       11.1975351857
  H        44.6669597916       18.8416657301        9.8843391681
  H        44.0167359432       17.3078275105       14.8203234912
  H        20.2921684174       17.9236217162       11.4217639565
  H        46.0421239777       15.3865474266        20.022227915838
  H        43.9130114886       15.3230116989        18.724716777438
  H        42.5229592496       18.7948140426        20.849438333538
  H        44.6582103278       18.8439925958        22.148764091838
  H        44.0063289000       17.2986892056        17.259426337438
  H        46.1990483072       26.6825478154        20.613103874638
  H        52.7411327014       21.0626355420        8.1946704938
  H        14.8776395802       19.6781308665        19.890955205938
  H        17.0781414771       19.7548620584        18.710372973838
  H        18.3358205795       16.2336032576        20.835148774738
  H        16.1373271739       16.1808144498        22.025352518438
  H        16.9414319297       17.7201783393        17.284490026338
  H        52.3223096801       21.6732705991        22.284172825338
  H        52.0132434916       21.7020861623        9.4956685434
  H        49.0674343144       18.6077973631        21.193850488538
  H        13.2474033314       19.0164160920        23.967160049338
  H        29.9504016788       12.4856158464       12.2445586090
  H        28.8987117722       10.5398242067       13.4070691302
  H        25.2624290980       11.1938068522       11.2062615203
  H        26.3343198736       13.1257673708       10.0345351144
  H        27.1796301200       11.6701382791       14.7912191384
  H        31.0007060287       22.7774931858       12.0128128056
  H        32.0125597905       24.6553718911       13.3108314685
  H        35.6996057439       24.1393556336       11.1573066053
  H        34.6676504946       22.2669314432        9.8560769549
  H        33.6989358418       23.5726206569       14.7478065347
  H        25.7306901490        8.5924706490       11.3990828959
  H        30.9628352559       22.6687169607        19.890021423638
  H        31.9781243273       24.5488297932        18.597035507038
  H        35.6084456747       24.1330475517        20.866828476638
  H        34.5700031615       22.2666253638        22.168611452438
  H        33.6775118278       23.5529381536        17.189517494538
  H        40.5975442343       17.0866333598        20.641279212438
  H        32.5062613214       14.1482216787        8.2519374525
  H        29.8914868912       12.5291027351        19.895346188438
  H        28.8678732396       10.6155848153        18.661685808538
  H        25.1974364386       11.1922989813        20.827477266438
  H        26.2428045137       13.0927690527        22.071617855538
  H        27.1666459135       11.6849589714        17.230181195838
  H        33.2940021266       14.2077824945        22.431389991138
  H        33.4035914912       14.4125162038        9.5998996739
  H        32.1271802813       18.5185813586        21.166128301438
  H        30.1917365573       14.1516053474        8.0793967276
  H        16.1184838658        2.9633598134       12.1297662323
  H        14.9533433987        4.8204147965       13.3225592652
  H        17.3659812363        7.6860223588       11.2098772235
  H        18.5146898466        5.8184822523       10.0100288686
  H        16.7536062113        5.7396129979       14.7715324779
  H        44.8281477444       32.1402685924       11.9770134082
  H        45.9374847828       30.3413870417       13.3064070421
  H        43.6825149309       27.3781648670       11.1524251946
  H        42.5997708893       29.1900079973        9.8098491196
  H        44.2304443031       29.4367322039       14.7688261681
  H        14.8511272185        8.5462731999       11.3633380150
  H        44.8998058300       32.2340398121        19.921471161038
  H        46.0246615532       30.4129783085        18.641956003238
  H        43.7634824107       27.4840679864        20.835161360938
  H        42.6457404122       29.3177558291        22.114232868638
  H        44.2684939693       29.4704778588        17.207897702938
  H        35.0735376309       26.6166439118        20.620319574838
  H        36.6050469429       35.1340951784        8.1806224007
  H        16.1437734206        3.0129878953        19.893839111538
  H        14.9742172758        4.8563429896        18.678078243738
  H        17.3959184851        7.7472976166        20.745196983438
  H        18.5429665119        5.8933651981        21.972850257938
  H        16.7647258556        5.7555499984        17.209074055138
  H        36.2785827377       34.4824055051        22.262993674638
  H        36.3808369743       34.2092498126        9.4996624937
  H        40.5800343896       33.2024402331        21.143357482838
  H        17.4708504977        1.9473838160        23.963870300738
  H        29.2017196107       19.4395904409       12.5009340427
  H        28.9638237506       18.9693075226        19.693009234038
  H        30.8322185538       15.6169221811        19.720555503038
  H        31.2492147988       15.6240523664       12.5350383116
  H        28.0581662917       17.8859794564       14.4224896018
  H        29.2145983335       15.6483040837       14.5126323976
  H        31.2530976979       19.6009339305        17.428344394038
  H        32.5767825254       17.1770810705        17.445676572438
  H        18.8534081991        0.8691734593       12.3352453011
  H        40.5278774019       35.2289671154        19.941825952838
  H        42.3238481293       34.4185605696        19.580377149138
  H        22.0877811586        0.6919437039       12.3516281536
  H        11.5970388498       18.7127727595       12.3823221210
  H        52.2649936623       18.4310848933        19.667375243838
  H        49.2551621580       16.4768261079        19.574321625038
  H        10.1503721696       15.7982330866       12.2927916938
  H        50.8500519014       17.6924834125        19.944033664538
  H        10.0461235136       17.3945930463       12.0519842404
  H        20.2145025337        0.0022497482       12.0420335735
  H        39.1835851173       36.1244616898        19.676265804838
 Ni        30.8170505063       17.7957124870        18.904415847138
 Ni        30.8145463110       16.5731994809       15.989375647638
 Ni        29.7236408249       18.5657676095       15.988986519338
 Ni        30.0522647481       17.4473379603       13.1588030943
  O        10.6499421193       14.3651521417        21.475617838038
  O        12.6131783823       14.6575471211        22.573696300638
  O        49.1477769242       16.8459460578        23.979570708838
  O        50.3501082351       20.9360114396        21.637973029138
  O        48.3484701591       20.5932622813        22.655784480638
  O        11.0515089541       17.0539112482        22.490504695038
  O        50.3209933639       20.8816557170       10.4068271117
  O        48.3467275067       20.5867051830        9.3271143780
  O        49.5435973010       18.2484212039       10.0682556752
  O        12.3589631927       18.6245995394        7.9997263871
  O        48.6932069158       14.1486300988        22.741084685938
  O         8.2098998814       14.2104137338        9.3225279290
  O        10.7353396215       14.5067354897       10.6643408934
  O        12.5718102455       14.5828506816        9.3285072233
  O        22.8447794436        2.0432796082        21.476954525638
  O        21.6058093542        3.5925586917        22.579117059938
  O        42.0582296808       34.1374066639        23.968715001738
  O        37.9815905492       33.1375137369        21.562340878838
  O        39.2180631582       31.5760042666        22.656331236138
  O        20.3084218559        1.0396767054        22.491915344038
  O        38.0250036112       33.1866172579       10.4148095415
  O        39.2193009516       31.5840199696        9.3262767801
  O        40.6523163706       33.7694029749       10.0601868606
  O        18.2555151981        1.3761840658        7.9967710740
  O        44.6222151963       35.1005478851        22.748539040638
  O        24.2054214028       -0.0000051251        9.3207982146
  O        22.7531517592        2.0575133429       10.5837860789
  O        21.6249646184        3.5965298007        9.3434916037
  O        27.4984715103       18.7534143428        21.482354323838
  O        26.7608786707       16.9382256969        22.641312838238
  O        30.6686242352       19.4096591889        8.0616682693
  O        33.5848262486       16.2759451985        21.658891297238
  O        34.2746860394       18.1662613204        22.727877227638
  O        29.5700843998       17.0602515294        22.582151043538
  O        33.5531143846       16.3383759158       10.4151571594
  O        34.3007108995       18.2377626232        9.4072377785
  O        31.6527235859       18.3147883845       10.1467357775
  O        30.2949838159       15.1166951802        8.0833292000
  O        28.5559657094       21.0366772294        22.825264859338
  O        28.5141153556       20.9575647761        9.4044484456
  O        27.4597193477       18.6798426122       10.6595852337
  O        26.6936471570       16.9301515839        9.4133683753
  O        13.1488351344       18.6929795569       10.5874427697
  O        13.9195573485       16.9162524398        9.4051941891
  O        50.5958846871       19.3501676987        8.0205634925
  O        47.6830489107       16.3269504139       10.4171662314
  O        46.9504963150       18.1755781941        9.3254437638
  O        11.0696544411       17.0155914653        9.4896525191
  O        47.6755921287       16.3359145268        21.642582002738
  O        46.9259745918       18.2358506975        22.653483811638
  O        49.5684971421       18.3177176009        21.972112477638
  O        10.3187225366       15.1002280736        7.9970747678
  O        52.6707501740       21.0278824197        9.2418252324
  O        12.1467994125       20.8911918285        22.663035801138
  O        13.1077777799       18.6137678220        21.315508854638
  O        13.9571667278       16.9870615024        22.655171940638
  O        29.9644963169       14.5029619470       10.7429718671
  O        28.0789368799       14.6560079540        9.4899625655
  O        32.0747768361       16.8613036220        8.0812489892
  O        30.9652636181       20.9534464389       10.4081854954
  O        32.9469109526       20.6008894558        9.3382848211
  O        29.5619255172       17.0771762272        9.5719980122
  O        30.9068541879       20.8836268397        21.583610654138
  O        32.8831347962       20.5832567590        22.660008712838
  O        31.6855719255       18.2504475169        21.989874258338
  O        28.2875990007       18.6790912056        8.0731438669
  O        32.4884179865       14.2142151079        9.3294514923
  O        32.4005830065       14.2133822919        22.813438854338
  O        29.8780168666       14.5044437815        21.403390404638
  O        28.0406043743       14.5860239145        22.735844377938
  O        17.8892355599        1.9667021191       10.6627975285
  O        18.9562969411        3.5271762763        9.4079603948
  O        39.1686874683       34.1388618203        7.9971513800
  O        43.2802246345       33.0589548154       10.3317018332
  O        42.0345415973       31.5064512737        9.2416060633
  O        20.3177553790        1.0368125150        9.4800772970
  O        43.2760896621       33.1825859620        21.564690596938
  O        42.0052917612       31.5840893290        22.572757468438
  O        40.5789739388       33.7749709066        21.925587620738
  O        22.3673843960        1.3847861925        7.9979513384
  O        36.6727219389       35.0998516882        9.2332386545
  O        16.4455571327        0.0642641423        22.658040873038
  O        17.9364859136        2.0434040147        21.316187891038
  O        18.9191182026        3.5931371046        22.655754216438
  O        29.8161700457       18.8229827610        20.141930774738
  O        29.8623508921       18.9263634322       11.9971504960
  O        31.2148470862       16.4078905396        20.143997016638
  O        31.2672218321       16.4801919958       12.0658323154
  O        31.6958958929       16.7767949259        17.570330476938
  O        30.1262638452       15.9761253721       14.4018451836
  O        30.4149470103       19.1247697749        17.579280357338
  O        28.8897667753       18.3913451901       14.3559580637
  O        39.4567100639       35.2438257822        19.991793158638
  O        19.1412539369        0.0046755768       11.9905544625
  O        41.9694427422       35.1724724801        20.076933592438
  O        21.6912781754       -0.0693626470       11.8958807009
  O        51.3651015797       18.6143099081        19.995239210238
  O        10.7511631281       18.7471293236       11.9049156873
  O        50.0796095278       16.4128079151        20.081597389038
  O         9.5245226981       16.4830783967       11.9912325221
 Zr         9.2967264617       16.0528045735        22.172199740138
 Zr        49.8363479112       16.0068045208        9.7465254358
 Zr        22.0731712570        0.0298443005        22.178834010338
 Zr        42.4608739521       35.1534079493        9.8009924750
 Zr        29.6138566040       19.0788325504        22.274473723738
 Zr        29.5826213122       19.1824474727        9.8466577676
 Zr        11.0379118442       19.0520198305        9.8277531380
 Zr        11.0436972899       19.1548663161        22.240962212538
 Zr        31.3292624323       16.1075245100        9.8771337649
 Zr        31.3800573334       16.0153274625        22.278594076038
 Zr        18.6011283676       -0.0012476996        9.7632763458
 Zr        18.5064358454       -0.0077924329        22.203518515638
 Zr        12.3020524244       16.3235958464        23.980121337138
 Zr        48.6159418184       18.8329397855        8.0103798380
 Zr        20.3154100969        2.4735686843        23.980479364438
 Zr        40.6434464503       32.6870088792        23.967909106638
 Zr        28.3394603800       16.3396395108        8.0797214820
 Zr        32.6308575996       18.8388446519        8.0537361157
