     570
 i =       21, E =     -4745.6145600452
  C        11.8586359189       14.0536330337        21.731365489238
  C        12.4561619492       12.8906565541        21.013038864238
  C        11.7044649469       12.1717305611        20.071390539138
  C        12.2808418425       11.1095274209        19.379023147538
  C        13.6214144179       10.7397455834        19.606764338938
  C        14.3545976542       11.4433360779        20.580198407038
  C        13.7817091035       12.5083171165        21.271705851838
  C        14.2609677086        9.6490745800        18.833386689038
  C        14.2563760987        9.6570092155        17.411685043238
  C        13.7432440702       10.7591480713        16.657776135138
  C        49.1267542416       21.2331493331        21.869512395738
  C        48.5499929462       22.4010770232        21.142425557338
  C        49.3001082543       23.0685228014        20.161575282538
  C        48.7331850515       24.1076550365        19.428361178738
  C        47.4025840202       24.5091728555        19.656846539238
  C        46.6715237294       23.8601459372        20.670179828138
  C        47.2339652396       22.8152429161        21.399548073638
  C        46.7723745972       25.5868939506        18.859566526038
  C        46.7614436146       25.5573443562        17.437799228538
  C        47.2614078033       24.4422681840        16.694300723038
  C        14.8603376567        8.5706722359        16.698437726138
  C        14.8916726448        8.5970915479        19.510046859438
  C        49.1131237755       21.2033662817       10.1453192185
  C        48.5277330362       22.3647199396       10.8724808798
  C        49.2670518301       23.0255689456       11.8652422023
  C        48.6907374132       24.0601239299       12.5967124803
  C        47.3602568301       24.4567617872       12.3586320763
  C        46.6397279568       23.8116956103       11.3352939626
  C        47.2132650919       22.7757788274       10.6035008609
  C        46.7218549389       25.5317646656       13.1496646884
  C        46.7336553429       25.5281700880       14.5713705088
  C        47.2491267292       24.4289702869       15.3277474717
  C        40.6163287695       17.0801076898       15.3140375768
  C        40.6302963081       17.1026980086       12.5039550504
  C        11.8829211223       14.0866208997       10.2854637364
  C        12.4722680644       12.9107787299       10.9897142739
  C        11.7147520172       12.1775775141       11.9158125334
  C        12.2813366051       11.0951164673       12.5842379540
  C        13.6201541872       10.7213971327       12.3524144571
  C        14.3581256656       11.4369579005       11.3916098439
  C        13.7927003855       12.5181356277       10.7189202241
  C        14.2537755660        9.6246454527       13.1228246496
  C        14.2525779188        9.6446540336       14.5446671021
  C        13.7427200235       10.7536190428       15.2917294013
  C        22.5113186352        3.2441886294        21.742907737838
  C        23.2251545059        4.3497523525        21.042883190338
  C        24.2211900414        4.0698925251        20.095746727938
  C        24.8474687435        5.1096825186        19.413442921138
  C        24.4932674817        6.4512338870        19.658458327638
  C        23.5253404373        6.7226827446        20.642498200438
  C        22.8943993567        5.6846670323        21.323103055938
  C        25.0985505480        7.5578710823        18.882876281938
  C        25.0688705678        7.5520784469        17.461417223438
  C        24.3647001058        6.5540132976        16.715489565638
  C        38.3022901663       31.9301591875        21.839230270938
  C        37.5716842428       30.8412237953        21.130400786938
  C        36.6104901904       31.1457709563        20.154453759238
  C        35.9922077246       30.1259417540        19.436608865938
  C        36.3206735274       28.7767428532        19.673118045438
  C        37.2521425803       28.4796026121        20.685687842338
  C        37.8743771059       29.4981427606        21.402560056038
  C        35.7176070424       27.6857430174        18.875736988738
  C        35.7467011919       27.7023037301        17.454393104138
  C        36.4515043931       28.7054494496        16.717134595638
  C        25.6921059896        8.6217698409        16.741448772038
  C        25.6977782028        8.6314907545        19.553759420038
  C        38.3285648377       31.9621714711       10.1562301207
  C        37.6062765194       30.8896440207       10.8981692291
  C        36.6760846833       31.1995461478       11.9021368571
  C        36.0647185328       30.1819395102       12.6317812159
  C        36.3693013433       28.8290235860       12.3810620028
  C        37.2772496691       28.5290599136       11.3470563782
  C        37.8906988241       29.5431756868       10.6185942603
  C        35.7598080563       27.7308692058       13.1653834583
  C        35.7681515823       27.7254727985       14.5874208626
  C        36.4613680658       28.7168124766       15.3506017731
  C        46.1356656712       26.6208150667       15.2815100338
  C        46.0878377067       26.5800858787       12.4736132817
  C        22.4601998920        3.2560059425       10.2577578667
  C        23.1527164656        4.3656760722       10.9810540765
  C        24.1543705251        4.0811652307       11.9227208060
  C        24.7805726948        5.1124046984       12.6187334258
  C        24.4253923498        6.4578042305       12.3954390235
  C        23.4467709532        6.7356126904       11.4223315031
  C        22.8158112918        5.7045842567       10.7270052783
  C        25.0547956965        7.5567777854       13.1697185406
  C        25.0467094671        7.5510829447       14.5925119471
  C        24.3523656868        6.5546475244       15.3488478211
  C        26.6255773269       17.8650053058        21.771483556838
  C        25.3171266795       17.9109461273        21.048783707838
  C        25.0623822612       18.8989101398        20.084576620338
  C        23.8485688353       18.9194655513        19.400062070438
  C        22.8525281398       17.9549572350        19.656373185638
  C        23.1037428537       16.9901052665        20.650238924838
  C        24.3192863404       16.9644135536        21.332796680238
  C        21.5791718381       17.9388524665        18.891908990438
  C        21.5787173243       17.9117509899        17.469278633238
  C        22.7837999007       17.7817283580        16.709139084038
  C        34.4222839371       17.2214770941        21.902812726738
  C        35.7130163334       17.1541867665        21.157756190938
  C        35.9094785473       16.1838912788        20.162807693138
  C        37.0927345114       16.1572686371        19.429324690138
  C        38.1117914677       17.1001397494        19.668964104138
  C        37.9174233151       18.0502350444        20.690071309438
  C        36.7326345003       18.0814883277        21.421882315638
  C        39.3667327164       17.1004484985        18.881713234738
  C        39.3612189588       17.1074261364        17.459331301438
  C        38.1536836682       17.2278009299        16.701894850538
  C        20.3322005070       17.9301375993        16.760300428638
  C        20.3538238904       17.9445139007        19.573561473038
  C        34.4369510553       17.2384001167       10.1905394055
  C        35.7376427939       17.1369034140       10.9138590273
  C        35.9440439516       16.1549717426       11.8943304683
  C        37.1353149824       16.1226264634       12.6155173692
  C        38.1493325980       17.0712153317       12.3771342614
  C        37.9489241475       18.0261148507       11.3625659155
  C        36.7573886179       18.0633224217       10.6444041801
  C        39.3992174315       17.0860536262       13.1702830304
  C        39.3780158042       17.1002660167       14.5919045159
  C        38.1616442138       17.2220869340       15.3352338282
  C        35.1369978228       26.6467207251       15.2915093558
  C        35.1702423390       26.6599137688       12.4822536302
  C        26.5718101447       17.8271407478       10.3249078029
  C        25.2580499946       17.8697676255       11.0335440873
  C        24.9950705669       18.8715461685       11.9802639985
  C        23.7775875430       18.8953702718       12.6550025030
  C        22.7932903098       17.9176818530       12.4063961748
  C        23.0510153420       16.9407533945       11.4276631571
  C        24.2693501020       16.9145344819       10.7515251802
  C        21.5293239251       17.8990702489       13.1789475171
  C        21.5531825612       17.8899679854       14.6004874979
  C        22.7710637575       17.7713494019       15.3429173428
  C        14.0468583920       17.8285637602       10.2893889994
  C        15.3512137005       17.8847943647       11.0155775001
  C        15.6083305203       18.8875260813       11.9636513932
  C        16.8171652962       18.9076017793       12.6570546858
  C        17.8036324336       17.9277046111       12.4249543948
  C        17.5511801719       16.9491209776       11.4448609095
  C        16.3418657093       16.9245144280       10.7529377439
  C        19.0728918295       17.9099271766       13.1942460677
  C        19.0718027268       17.9082199801       14.6168954697
  C        17.8647803916       17.8121916995       15.3784593551
  C        46.8019485700       17.2168967893       10.1582518901
  C        45.5092220055       17.1479216655       10.9010302161
  C        45.3047096733       16.1648024277       11.8819616957
  C        44.1212275168       16.1369692907       12.6154471051
  C        43.1101182076       17.0920315888       12.3914370478
  C        43.3116854816       18.0545336262       11.3833087729
  C        44.4960913902       18.0862655414       10.6504859881
  C        41.8558670417       17.0943699666       13.1808826257
  C        41.8624832084       17.0944928436       14.6034685863
  C        43.0715588237       17.1923969071       15.3616585942
  C        20.3186346100       17.9182647140       15.3253559580
  C        20.2972584931       17.8889456303       12.5121519216
  C        46.7829902498       17.2312620812        21.877122880638
  C        45.4795017030       17.1232640402        21.160080245438
  C        45.2623011416       16.1230306566        20.199884447938
  C        44.0736718544       16.0911683564        19.474197469138
  C        43.0706574718       17.0564603769        19.690227753438
  C        43.2788300590       18.0271133780        20.688310784038
  C        44.4685796707       18.0652512066        21.409381544338
  C        41.8226292491       17.0728441600        18.893733720138
  C        41.8455653013       17.0821322344        17.472055029338
  C        43.0635788174       17.1836191851        16.728512350238
  C        46.1534404437       26.6372392865        16.716060077738
  C        46.1623744519       26.6559755536        19.525706633438
  C        14.0458066403       17.8323206898        21.698937668838
  C        15.3674106593       17.9081556428        21.009501747838
  C        15.6405208922       18.9240146201        20.081273635238
  C        16.8699346410       18.9626223821        19.427186453838
  C        17.8539767955       17.9845349723        19.675459607638
  C        17.5878119397       16.9978831279        20.642256548438
  C        16.3604218772       16.9587257941        21.299829240938
  C        19.1213826303       17.9597021652        18.906467311938
  C        19.0970555100       17.9326267794        17.485003418038
  C        17.8771718871       17.8230073387        16.744454542138
  C        28.8084406424       14.0927076598       10.3908929809
  C        28.1937301349       12.9212289810       11.0800190300
  C        28.9145714303       12.1810620280       12.0287403205
  C        28.3137076407       11.1065118067       12.6795766341
  C        26.9777879984       10.7488639026       12.4066270422
  C        26.2785425728       11.4700304592       11.4222143359
  C        26.8772555894       12.5444010266       10.7692639249
  C        26.3075144652        9.6694024660       13.1672222111
  C        26.2952069767        9.6955950833       14.5882871534
  C        26.8010157957       10.8072396497       15.3343930205
  C        32.1782515496       21.2393115634       10.1477616480
  C        32.7718200913       22.4058510963       10.8658004913
  C        32.0210482782       23.0876960588       11.8358678151
  C        32.5904635264       24.1283296529       12.5632920755
  C        33.9263317085       24.5149632601       12.3415761130
  C        34.6595420136       23.8521604589       11.3393355396
  C        34.0925073816       22.8061811094       10.6137069966
  C        34.5541675559       25.5910816097       13.1419488309
  C        34.5446049441       25.5632723748       14.5636407175
  C        34.0341643778       24.4488984031       15.3017527365
  C        25.6849210677        8.6180156966       15.3069286651
  C        25.6707098437        8.6187833697       12.4937027450
  C        32.1015462352       21.2267572213        21.871128832038
  C        32.6913895343       22.3788293817        21.128133923438
  C        31.9546717980       23.0423884831        20.134846520838
  C        32.5344986035       24.0724778581        19.398037143438
  C        33.8647416150       24.4696355279        19.636898843038
  C        34.5842033872       23.8199994416        20.658168717938
  C        34.0092872713       22.7841083568        21.389865823638
  C        34.5040265374       25.5513864277        18.852477599938
  C        34.5180006426       25.5435032638        17.430492170538
  C        34.0205040545       24.4399646733        16.668381884538
  C        40.6073409696       17.0787224588        16.749234885738
  C        40.5917276930       17.0990757364        19.559610966938
  C        28.7414615681       14.0699957021        21.802413831438
  C        28.1351931234       12.9223121905        21.065696936038
  C        28.8740509354       12.2151096736        20.104657472238
  C        28.2908000691       11.1596520274        19.407348908338
  C        26.9540230830       10.7833560691        19.648048039338
  C        26.2327852071       11.4768396207        20.637914090538
  C        26.8132915372       12.5339701861        21.335412737538
  C        26.3102289072        9.6934416194        18.876014508638
  C        26.2989831719        9.7074794076        17.454407428138
  C        26.8014620719       10.8140135538        16.700212787838
  C        18.1353488401        3.1809567035       10.3171849532
  C        17.4060292848        4.2782003051       11.0157727701
  C        16.3905046475        3.9998383181       11.9435054539
  C        15.7427704883        5.0398221471       12.6069886945
  C        16.0944676547        6.3835679271       12.3671002686
  C        17.0835993596        6.6530814693       11.4030682591
  C        17.7326955163        5.6157390482       10.7380268326
  C        15.4701874849        7.4912857584       13.1301404979
  C        15.4855303716        7.4906318748       14.5518530689
  C        16.1871118644        6.4970464974       15.3050420469
  C        42.9459039672       31.8594647596       10.0729102405
  C        43.6462552803       30.7718355354       10.8168523222
  C        44.5918151583       31.0931465932       11.8029096792
  C        45.1975107876       30.0875902180       12.5505592432
  C        44.8710678735       28.7345201661       12.3357135729
  C        43.9452101420       28.4201952562       11.3225204612
  C        43.3363979480       29.4253430564       10.5744881874
  C        45.4886757325       27.6552309884       13.1388980673
  C        45.4929251741       27.6809191217       14.5605892907
  C        44.8058235373       28.6889482123       15.3072205621
  C        14.8565889235        8.5631423607       15.2642129334
  C        14.8748948761        8.5630534287       12.4515449602
  C        42.9464789763       31.9614855925        21.798768231138
  C        43.6916920688       30.8854011366        21.085309905538
  C        44.6562589693       31.1913054419        20.112966542238
  C        45.2777854414       30.1717161110        19.395263796138
  C        44.9540577285       28.8213799331        19.632926547438
  C        44.0206047355       28.5237221647        20.643742131638
  C        43.3923404078       29.5404887665        21.355914860038
  C        45.5631058135       27.7239999442        18.847663940738
  C        45.5334506399       27.7173762520        17.426363045038
  C        44.8271007661       28.7075827979        16.673405041938
  C        35.1248635018       26.6357239243        16.726303673738
  C        35.1151669655       26.6091565624        19.536207490938
  C        18.1485145046        3.2470108395        21.696401192638
  C        17.4298763755        4.3438522742        20.987178768138
  C        16.4148307606        4.0525750506        20.063427235438
  C        15.7665176421        5.0832086481        19.388044032138
  C        16.1210061161        6.4284662182        19.610935690438
  C        17.1121785793        6.7118480809        20.568413504138
  C        17.7598483636        5.6829363592        21.248180490738
  C        15.4905532532        7.5241723814        18.838475802538
  C        15.4965267136        7.5075620005        17.417342212338
  C        16.1933202615        6.5058784470        16.670646579138
  H        10.6723259279       12.4658547286        19.894402911038
  H        11.6945400211       10.5510295570        18.652505681738
  H        15.3916496515       11.1687882998        20.761881209938
  H        14.3511818591       13.0716165429        22.007076819438
  H        13.3762066914       11.6312565186        17.191098278038
  H        50.3228627100       22.7485735220        19.976940263538
  H        49.3197210445       24.6230105696        18.670884600138
  H        45.6419528565       24.1607510668        20.853185800838
  H        46.6628468723       22.2898569222        22.161464671438
  H        47.6299139326       23.5758734501        17.235980916838
  H        14.8719207491        8.5883268571        20.598351918438
  H        50.2871493401       22.7028140062       12.0600329043
  H        49.2691906179       24.5756755334       13.3601041989
  H        45.6102390999       24.1087600559       11.1464082998
  H        46.6523147338       22.2534673400        9.8321295025
  H        47.6078670197       23.5518359530       14.7968477636
  H        40.6350998874       17.0699283578       11.4160802908
  H        48.6869791856       14.0950963428        23.789734477838
  H        10.6812711488       12.4666400207       12.0931838888
  H        11.6895289300       10.5246969804       13.2969025969
  H        15.3935696491       11.1591012984       11.2057019788
  H        14.3650366760       13.0875503794        9.9904208589
  H        13.3758933878       11.6222215311       14.7530707593
  H        47.9300171286       14.2187676033        9.7107434594
  H        47.7799505310       14.3739027938        22.484967841438
  H        49.0826732603       18.5519247472       10.8670220594
  H        10.4157506027       14.1344450401        7.9987520246
  H        24.4820815307        3.0313345582        19.904658420738
  H        25.6199918357        4.8926980823        18.678900104038
  H        23.2444933626        7.7555621069        20.837676230638
  H        22.1247402774        5.8844603061        22.064615215138
  H        23.8032601489        5.7975560322        17.256029648938
  H        36.3730031617       32.1891051398        19.960668287938
  H        35.2464059099       30.3651334865        18.681737137238
  H        37.5129858051       27.4403940556        20.875003243038
  H        38.6192306801       29.2770341612        22.163322445338
  H        37.0164907960       29.4553284439        17.263120760038
  H        25.7337394809        8.6136946305        20.641537527038
  H        36.4530677507       32.2439995870       12.1079961011
  H        35.3378267932       30.4277136918       13.4027841346
  H        37.5242556618       27.4885648502       11.1468109170
  H        38.6140850109       29.3165495715        9.8391693170
  H        37.0350289918       29.4749641567       14.8253059499
  H        46.1091374156       26.5874021774       11.3855749745
  H        44.6681886999       35.1161125559        23.803727372338
  H        24.4329391043        3.0432904056       12.0907813282
  H        25.5609583770        4.8847117958       13.3417362480
  H        23.1608246486        7.7697032976       11.2409546733
  H        22.0443688667        5.9161752174        9.9901894903
  H        23.7808737448        5.7991570461       14.8174474762
  H        44.9535782075       34.3902261229        9.6951156677
  H        44.9015015545       34.2066888072        22.480409217438
  H        40.6657773449       33.2087961897       10.8529879373
  H        23.1504260258        1.9577037977        8.0053590005
  H        25.8290147117       19.6443643485        19.886019390138
  H        23.6568180917       19.6923053638        18.658725463538
  H        22.3472077873       16.2361362301        20.858152462738
  H        24.5228668986       16.2053170103        22.084455396938
  H        23.7241281788       17.6596226724        17.238926138838
  H        35.1178591255       15.4627251177        19.973247804738
  H        37.2429468932       15.3969541698        18.666026040238
  H        38.6949718650       18.7871761996        20.880352697638
  H        36.5678188383       18.8297187363        22.193768126738
  H        37.2143997141       17.3576778296        17.231912884738
  H        20.3602179715       17.9883746600        20.661288972438
  H        35.1533537823       15.4343656432       12.0900763196
  H        37.2924472227       15.3584167316       13.3735428291
  H        38.7241789414       18.7654312754       11.1722810138
  H        36.5831647216       18.8193432770        9.8826394793
  H        37.2283212518       17.3463382351       14.7936118494
  H        35.1441595207       26.6848642048       11.3944966222
  H        28.5069113970       21.0740696017        23.944941668938
  H        25.7568658904       19.6251177741       12.1672964970
  H        23.5730658217       19.6768967842       13.3836325293
  H        22.2994866896       16.1791832376       11.2296373028
  H        24.4838274467       16.1488865969       10.0097489092
  H        23.7017484208       17.6412832905       14.7988693502
  H        29.0112680811       21.7204067803        9.7514950714
  H        29.1750819611       21.7352662543        22.613029114038
  H        32.0683666710       18.5561838945       10.9993278051
  H        27.4061109203       19.0730374285        8.0776238240
  H        14.8503666068       19.6470558897       12.1418868869
  H        17.0123192244       19.6917883188       13.3854174641
  H        18.3019479409       16.1844400273       11.2562212589
  H        16.1360403089       16.1555886594       10.0120693820
  H        16.9220238242       17.6971438444       14.8515253204
  H        46.0906484168       15.4354196461       12.0633369195
  H        43.9655360190       15.3664911013       13.3674284264
  H        42.5402324308       18.8006870798       11.2043946454
  H        44.6657937521       18.8443749909        9.8893862721
  H        44.0128570074       17.3066855549       14.8316869491
  H        20.2913049445       17.9188842404       11.4240105628
  H        46.0407256755       15.3841325654        20.023663553338
  H        43.9097459502       15.3140189793        18.730829841838
  H        42.5107862624       18.7777733604        20.862784572138
  H        44.6482891971       18.8339340651        22.157059111438
  H        43.9989276153       17.2901097552        17.270315296938
  H        46.1991301632       26.6824402272        20.613156807538
  H        52.7411378524       21.0626428369        8.1946622230
  H        14.8794088498       19.6770157370        19.888981642938
  H        17.0806511574       19.7532779952        18.710257958338
  H        18.3389977448       16.2364292142        20.841789410938
  H        16.1396608598       16.1839447309        22.030018704438
  H        16.9436530926       17.7162826533        17.288731914338
  H        52.3224844397       21.6732695469        22.284069558138
  H        52.0132732672       21.7020881136        9.4956927144
  H        49.0668447776       18.6074898047        21.194013043838
  H        13.2474015380       19.0163672351        23.967291675838
  H        29.9432980088       12.4625750844       12.2418684439
  H        28.8744042517       10.5308344652       13.4128248558
  H        25.2462592532       11.2039415053       11.2042224829
  H        26.3352944404       13.1223051100       10.0246945198
  H        27.1645357898       11.6758246550       14.7937728554
  H        30.9948957161       22.7762067467       12.0150781411
  H        32.0034406942       24.6560319161       13.3118131994
  H        35.6934674120       24.1415425497       11.1626906677
  H        34.6643074630       22.2689975477        9.8605129223
  H        33.6779153664       23.5804534824       14.7550958366
  H        25.7010483562        8.5993015849       11.4057080021
  H        30.9299320438       22.7310000238        19.946364246038
  H        31.9565582492       24.5877303335        18.633896535538
  H        35.6140154243       24.1154958654        20.848022792838
  H        34.5703294861       22.2600536835        22.160118986238
  H        33.6537197040       23.5644982284        17.196634124838
  H        40.5859787272       17.0661218206        20.647478250038
  H        32.5105138101       14.1528206310        8.2530239880
  H        29.9077795936       12.5016791287        19.924592990338
  H        28.8704481278       10.6075310634        18.670689330138
  H        25.1985960798       11.1987202243        20.830317876738
  H        26.2528527294       13.0860824028        22.086122523138
  H        27.1638310386       11.6880033656        17.233601911038
  H        33.2987110234       14.2005125383        22.432285785538
  H        33.4053455887       14.4080362219        9.6021523889
  H        32.0776075881       18.5343602249        21.142160207138
  H        30.2204482589       14.1916459982        8.0738870375
  H        16.1185767144        2.9633264498       12.1300643169
  H        14.9534413523        4.8204245924       13.3227771115
  H        17.3657953073        7.6859771948       11.2097207416
  H        18.5144964811        5.8183908773       10.0099280282
  H        16.7536636648        5.7396924350       14.7715598076
  H        44.8281247974       32.1402199932       11.9770955257
  H        45.9373864515       30.3413177861       13.3065011971
  H        43.6824596408       27.3781357038       11.1524269780
  H        42.5997595825       29.1899672762        9.8098573567
  H        44.2304004927       29.4366692834       14.7689269566
  H        14.8510481013        8.5462567370       11.3633264640
  H        44.8997758564       32.2339830251        19.921475747438
  H        46.0246637018       30.4129285321        18.641995875338
  H        43.7636591912       27.4839941969        20.835341693438
  H        42.6458885510       29.3176415401        22.114391221438
  H        44.2685134935       29.4704177600        17.207978201738
  H        35.0747539524       26.6203857639        20.623766701938
  H        36.6050235307       35.1340728745        8.1805687257
  H        16.1438573547        3.0129893193        19.893575113838
  H        14.9742979648        4.8563496238        18.677845588438
  H        17.3954952842        7.7473361862        20.745488193938
  H        18.5425434208        5.8933931459        21.973135468538
  H        16.7647363193        5.7556292461        17.209088329038
  H        36.2784013885       34.4826285700        22.262999309738
  H        36.3805526869       34.2093067176        9.4997102552
  H        40.5801322736       33.2023423910        21.143432270838
  H        17.4706422457        1.9472766264        23.963925471638
  H        29.0777110046       19.3753590442       12.5415772532
  H        29.5922922218       19.5543214078        19.510725587138
  H        30.4467693747       15.6922961739        19.829676324438
  H        31.1413019378       15.6096629705       12.5132950325
  H        27.8362628783       17.8321271926       14.4085830659
  H        29.1018122387       15.4259226545       14.4040725780
  H        31.3334420204       19.5094266398        17.287909119238
  H        32.0756537804       16.0007484313        17.916605816138
  H        18.8529069948        0.8688090363       12.3352303395
  H        40.5281593985       35.2294132817        19.941883844838
  H        42.3238857507       34.4188020946        19.580507645538
  H        22.0877289414        0.6922225698       12.3515496769
  H        11.5970859508       18.7127455486       12.3822192244
  H        52.2648495574       18.4309910950        19.667356080338
  H        49.2546732628       16.4771396830        19.574502107038
  H        10.1501682820       15.7982712509       12.2927334864
  H        50.8498897247       17.6925568433        19.944029161538
  H        10.0459928577       17.3946153480       12.0519313425
  H        20.2140072803        0.0021126767       12.0421029752
  H        39.1838482404       36.1248069658        19.676267352438
 Ni        30.8142644801       17.7460264133        18.741130379238
 Ni        30.8152036187       16.3775569624       15.825878964838
 Ni        29.5913614257       18.5515651713       15.987569814738
 Ni        29.8878428801       17.3549892477       13.1582790702
  O        10.6498681600       14.3651572433        21.475621981638
  O        12.6131509250       14.6575453105        22.573694070438
  O        49.1476058803       16.8459640230        23.979519285138
  O        50.3502303087       20.9358645611        21.637914398238
  O        48.3485268790       20.5932436665        22.655764233538
  O        11.0514214034       17.0539167753        22.490473445338
  O        50.3209488958       20.8816448713       10.4068186682
  O        48.3466991609       20.5866759578        9.3270781296
  O        49.5435162589       18.2484136806       10.0682019530
  O        12.3589361854       18.6245957639        7.9997339156
  O        48.6931547847       14.1486803208        22.741033959038
  O         8.2098177247       14.2104757461        9.3225900757
  O        10.7353426359       14.5067752865       10.6643303119
  O        12.5718149086       14.5828536886        9.3284785179
  O        22.8445755199        2.0432907819        21.476969799138
  O        21.6052983700        3.5922307911        22.579677395138
  O        42.0581793865       34.1373222829        23.968793182038
  O        37.9817841677       33.1385837061        21.562504019738
  O        39.2180941318       31.5763810683        22.656414176038
  O        20.3084105212        1.0395606597        22.491848298638
  O        38.0247636479       33.1860626291       10.4150146494
  O        39.2190700419       31.5837251845        9.3265353850
  O        40.6522851385       33.7693365050       10.0602615767
  O        18.2553635395        1.3761542715        7.9967915813
  O        44.6222347958       35.1005360698        22.748527993938
  O        24.2053741929        0.0000366119        9.3208319549
  O        22.7530182112        2.0581961749       10.5839957903
  O        21.6243156437        3.5960671417        9.3424077570
  O        27.5009266841       18.7547742364        21.486443976938
  O        26.7666871888       16.9348541701        22.642536472338
  O        30.6604606312       19.4030860180        8.0608750814
  O        33.5434209302       16.3297298139        21.645210723938
  O        34.2754836337       18.1780792561        22.735632229038
  O        29.5723667776       17.0647044131        22.566997805638
  O        33.5497696464       16.3395363586       10.4176576548
  O        34.2987308496       18.2377331451        9.4079623606
  O        31.6480386000       18.3162874640       10.1562934796
  O        30.3212028473       15.1576559455        8.0816260804
  O        28.5560599653       21.0321128830        22.881756004538
  O        28.5142385294       20.9557255612        9.4138909084
  O        27.4572608890       18.6796388875       10.6583933812
  O        26.6941776213       16.9289559403        9.4130400969
  O        13.1490415605       18.6928753622       10.5876103172
  O        13.9195971198       16.9162733751        9.4052291974
  O        50.5957238315       19.3500695588        8.0204547890
  O        47.6823296743       16.3272453548       10.4174384467
  O        46.9499851770       18.1755765390        9.3258002105
  O        11.0695947078       17.0155876211        9.4896409009
  O        47.6746074430       16.3359574064        21.642505463338
  O        46.9249145295       18.2358251046        22.653000793238
  O        49.5683390025       18.3176902282        21.972103935338
  O        10.3185424607       15.1003066916        7.9970914984
  O        52.6707509679       21.0278711096        9.2418215174
  O        12.1468009652       20.8911573425        22.663052481338
  O        13.1081469977       18.6136986331        21.315419889138
  O        13.9573503514       16.9871416215        22.655151153538
  O        29.9940565794       14.4420121421       10.7285163630
  O        28.0893414964       14.6544300010        9.4939750174
  O        32.0780896658       16.8657230237        8.0773089729
  O        30.9631839300       20.9498621300       10.4108706826
  O        32.9448861158       20.6026098089        9.3396240309
  O        29.5619178878       17.0776463140        9.5751026275
  O        30.8707216532       20.9436805825        21.651184488038
  O        32.8761529113       20.5865881531        22.656367273138
  O        31.6829973275       18.2533626638        21.985620026838
  O        28.2922413424       18.6758838444        8.0756489376
  O        32.4899894698       14.2145051475        9.3289418458
  O        32.4042719260       14.2192339019        22.811382206238
  O        29.9173176746       14.4484074600        21.464983550338
  O        28.0428010134       14.5859476685        22.739325621238
  O        17.8892124516        1.9666201391       10.6628322733
  O        18.9562070355        3.5271314928        9.4080002151
  O        39.1686770560       34.1388274727        7.9971773766
  O        43.2802087689       33.0589597166       10.3316966455
  O        42.0345289839       31.5064604483        9.2416253737
  O        20.3176367379        1.0366972656        9.4802783397
  O        43.2760603826       33.1825404687        21.564679032338
  O        42.0052719286       31.5841119835        22.572788471938
  O        40.5790297711       33.7749852897        21.925581095138
  O        22.3672691780        1.3845568424        7.9979667559
  O        36.6727229709       35.0998069565        9.2332414511
  O        16.4455185037        0.0643476983        22.658123485938
  O        17.9364656403        2.0434139453        21.316164814538
  O        18.9190209323        3.5931388960        22.655727284038
  O        29.9119079659       18.8200023137        20.065877572338
  O        29.7883461235       18.9077029991       12.0609370415
  O        31.1685995256       16.3303719000        19.997646565338
  O        31.1815234670       16.4785660121       12.0650745449
  O        31.7730734825       16.7794568101        17.410811014638
  O        30.0006717793       15.7603702218       14.2387893562
  O        30.4506145608       19.1849356454        17.546821455438
  O        28.6767950593       18.3169483607       14.3298037391
  O        39.4570354530       35.2441671522        19.991720985538
  O        19.1408930969        0.0043264128       11.9905984834
  O        41.9697974081       35.1729196167        20.076990294038
  O        21.6913352697       -0.0691813493       11.8958858652
  O        51.3649670326       18.6142894422        19.995226537938
  O        10.7511639698       18.7471756020       11.9048973563
  O        50.0792178257       16.4127825385        20.081589600538
  O         9.5243297463       16.4831289023       11.9911682221
 Zr         9.2964877396       16.0529642850        22.172127508738
 Zr        49.8360646111       16.0069024521        9.7465268712
 Zr        22.0731750598        0.0295717496        22.178936233238
 Zr        42.4608461144       35.1532595492        9.8009933091
 Zr        29.6110734206       19.0849721978        22.253112366638
 Zr        29.5771819109       19.1748168711        9.8683715505
 Zr        11.0378787095       19.0520065450        9.8276926930
 Zr        11.0436826461       19.1548527463        22.240955022638
 Zr        31.3325159391       16.1071812400        9.8811865756
 Zr        31.3917902957       16.0267210937        22.261556482638
 Zr        18.6009514604       -0.0015752682        9.7632785625
 Zr        18.5063933289       -0.0076971891        22.203451195338
 Zr        12.3020818929       16.3237083867        23.980063693438
 Zr        48.6154903726       18.8328341899        8.0102424260
 Zr        20.3148356652        2.4730966325        23.980396252938
 Zr        40.6433876923       32.6868527330        23.968073384938
 Zr        28.3413741171       16.3469215296        8.0809335503
 Zr        32.6208461915       18.8446452520        8.0546903693
  H        30.8543501098       17.8813131437       15.2879554734
  H        29.5213370209       17.0317223614        16.448766543738
