     572
 i =      448, E =     -4777.6973124288
  C        11.8587703944       14.0535567246        21.731351309138
  C        12.4563218914       12.8906230200        21.012990091438
  C        11.7045690554       12.1716169868        20.071446707938
  C        12.2809592243       11.1093956525        19.379123762138
  C        13.6215813877       10.7397362015        19.606738747638
  C        14.3548066380       11.4434224924        20.580062972738
  C        13.7819363241       12.5084359451        21.271539716638
  C        14.2610805984        9.6490271165        18.833377986738
  C        14.2564582284        9.6569450284        17.411680929638
  C        13.7433405410       10.7591031185        16.657791856638
  C        49.1268514357       21.2332328639        21.869469646838
  C        48.5500809761       22.4011732542        21.142336231038
  C        49.3001863239       23.0686595896        20.161519582438
  C        48.7332544097       24.1078317253        19.428350830738
  C        47.4026192346       24.5092470326        19.656806271238
  C        46.6715671458       23.8601913470        20.670119892038
  C        47.2340342893       22.8152616475        21.399427220938
  C        46.7723698262       25.5869892532        18.859580500738
  C        46.7613410578       25.5573967774        17.437817946838
  C        47.2613026620       24.4423141822        16.694325141138
  C        14.8604199576        8.5706140959        16.698425443438
  C        14.8918107894        8.5970714909        19.510045778538
  C        49.1132424544       21.2034585451       10.1453914328
  C        48.5278049308       22.3647830816       10.8726453574
  C        49.2671036247       23.0256740559       11.8653752825
  C        48.6907207309       24.0602269948       12.5968109024
  C        47.3602341936       24.4568143355       12.3587001163
  C        46.6397650580       23.8117208149       11.3353421178
  C        47.2133523565       22.7758123836       10.6035813107
  C        46.7217678710       25.5318039683       13.1496985691
  C        46.7334849558       25.5281662925       14.5714011656
  C        47.2489925912       24.4289791307       15.3277736621
  C        40.6350126109       17.1482042130       15.3238565012
  C        40.6560676462       17.1801101154       12.5150891147
  C        11.8830075733       14.0865746167       10.2854798245
  C        12.4723978021       12.9107615970       10.9897540146
  C        11.7148505756       12.1774815944       11.9157640528
  C        12.2814649509       11.0950234379       12.5841676534
  C        13.6203244549       10.7214197515       12.3524337534
  C        14.3583594953       11.4371370122       11.3918034018
  C        13.7929260504       12.5183214447       10.7191271088
  C        14.2539594983        9.6246832777       13.1228493184
  C        14.2526868992        9.6446160883       14.5446881178
  C        13.7428170623       10.7535766701       15.2917463336
  C        22.5113997807        3.2440441968        21.743200088938
  C        23.2255614269        4.3494653545        21.043727228738
  C        24.2214273181        4.0694134291        20.096493968838
  C        24.8478587676        5.1091513233        19.414385943338
  C        24.4940057242        6.4507009488        19.659866267238
  C        23.5264063277        6.7223515021        20.644129942438
  C        22.8952384302        5.6843691991        21.324488897438
  C        25.0995769625        7.5569638040        18.884258904638
  C        25.0698816081        7.5506777198        17.462890500438
  C        24.3639060507        6.5534870487        16.717486064538
  C        38.2981567434       31.9284688481        21.841957721738
  C        37.5566224003       30.8404929608        21.140396263238
  C        36.5911325369       31.1487392277        20.169526138438
  C        35.9606663428       30.1317022114        19.458013444838
  C        36.2803925071       28.7802658867        19.694241375338
  C        37.2151185911       28.4793837286        20.702944622438
  C        37.8496091963       29.4954392884        21.413889404938
  C        35.6698093455       27.6930670329        18.894786625138
  C        35.7100870503       27.7085516643        17.473176103938
  C        36.4240796652       28.7087943177        16.740505551538
  C        25.6946835850        8.6192047302        16.742602967638
  C        25.6988301242        8.6306867013        19.554867600738
  C        38.3307368779       31.9613345261       10.1601173590
  C        37.6141590988       30.8889588749       10.9097728934
  C        36.6813003485       31.1996058276       11.9112768713
  C        36.0713199980       30.1833064454       12.6445208396
  C        36.3791922974       28.8297354794       12.4005091082
  C        37.2929711269       28.5289539016       11.3716759196
  C        37.9047507616       29.5417937919       10.6394663732
  C        35.7636778155       27.7321627796       13.1825522559
  C        35.7579195887       27.7286056901       14.6050500210
  C        36.4454679387       28.7193842404       15.3741109831
  C        46.1354831925       26.6208137885       15.2815223866
  C        46.0877302262       26.5801040093       12.4736350679
  C        22.4596671399        3.2558452655       10.2579040466
  C        23.1510365444        4.3654685667       10.9818747963
  C        24.1516114248        4.0810186961       11.9246775834
  C        24.7767868035        5.1123367856       12.6213287850
  C        24.4217260212        6.4576490165       12.3973248285
  C        23.4441561105        6.7354008134       11.4231664060
  C        22.8141454917        5.7042709560       10.7272565651
  C        25.0513499374        7.5563479398       13.1714064039
  C        25.0454526203        7.5499120618       14.5941383660
  C        24.3505203930        6.5541989217       15.3509041167
  C        26.6277512137       17.8631899865        21.769942454638
  C        25.3191177845       17.9094525150        21.046392734738
  C        25.0630003549       18.8992837913        20.084593236938
  C        23.8487436058       18.9203904065        19.400641190738
  C        22.8537443213       17.9543456546        19.655076345338
  C        23.1064255811       16.9873573762        20.646483791738
  C        24.3222834101       16.9613840786        21.328568988138
  C        21.5799637859       17.9386279026        18.891112505538
  C        21.5790059247       17.9122259193        17.468465818938
  C        22.7840292293       17.7848586298        16.707624884438
  C        34.4378450296       17.1976983415        21.906673144538
  C        35.7303072140       17.1474973033        21.163020453638
  C        35.9344030078       16.1830074202        20.164255219038
  C        37.1149611788       16.1729038110        19.427004589238
  C        38.1233795843       17.1252386758        19.670960376638
  C        37.9225705369       18.0693245069        20.695700860938
  C        36.7386662652       18.0857471536        21.428878265238
  C        39.3780487365       17.1368700880        18.886054180338
  C        39.3751098179       17.1589549486        17.464722649038
  C        38.1688068602       17.2859459976        16.706398394438
  C        20.3322511491       17.9292893898        16.759928321038
  C        20.3548302271       17.9434695995        19.573190568538
  C        34.4782729561       17.2470995317       10.1791597562
  C        35.7810431666       17.1773604905       10.9035225714
  C        35.9951817010       16.1966057121       11.8832876611
  C        37.1802152256       16.1821719310       12.6132225214
  C        38.1788926921       17.1477338528       12.3818148730
  C        37.9711771281       18.1036137974       11.3702583911
  C        36.7837284928       18.1232916986       10.6436072769
  C        39.4246388160       17.1679908120       13.1784239750
  C        39.3990565174       17.1758556151       14.5992610836
  C        38.1804464827       17.2921475840       15.3397545124
  C        35.1173219874       26.6523483324       15.3049709778
  C        35.1789524352       26.6605134313       12.4954393697
  C        26.5713763977       17.8281970814       10.3238876989
  C        25.2554211554       17.8716957298       11.0302983159
  C        24.9894779662       18.8774886766       11.9718421021
  C        23.7726421049       18.9005090589       12.6479096891
  C        22.7914891106       17.9184177097       12.4045700011
  C        23.0513574004       16.9380761742       11.4299679733
  C        24.2694537468       16.9124865502       10.7531202873
  C        21.5280200138       17.8992613982       13.1780255606
  C        21.5524229379       17.8908255140       14.5994980881
  C        22.7709124413       17.7747838153       15.3413674394
  C        14.0466637681       17.8283474735       10.2894882458
  C        15.3506192425       17.8840529878       11.0159948004
  C        15.6075131625       18.8862636000       11.9646507600
  C        16.8161594430       18.9057556950       12.6582847142
  C        17.8024657337       17.9258534826       12.4256752304
  C        17.5502031087       16.9477700018       11.4450812964
  C        16.3410541440       16.9236665647       10.7529885052
  C        19.0717767627       17.9081547278       13.1945614830
  C        19.0711195290       17.9062146823       14.6171162319
  C        17.8644232969       17.8085945774       15.3790027943
  C        46.8067604553       17.2204749426       10.1599846907
  C        45.5194294219       17.1649564513       10.9089524383
  C        45.3134809740       16.1927006766       11.8997050235
  C        44.1337400012       16.1825052421       12.6387799510
  C        43.1312887242       17.1446599983       12.4081438389
  C        43.3348610044       18.0968267951       11.3913207090
  C        44.5151885137       18.1111092349       10.6534995855
  C        41.8787251273       17.1619580317       13.1959225442
  C        41.8828207223       17.1603794703       14.6174563226
  C        43.0909261625       17.2517487167       15.3778159256
  C        20.3182103339       17.9175292753       15.3249902876
  C        20.2957587695       17.8879200039       12.5118332939
  C        46.7856767841       17.2304589922        21.880600914738
  C        45.4814141840       17.1244061131        21.168469292938
  C        45.2632823635       16.1305861079        20.202497400838
  C        44.0748430143       16.1071742048        19.477130434338
  C        43.0759594345       17.0743015609        19.701430385438
  C        43.2835077740       18.0360061513        20.707643401738
  C        44.4732253840       18.0662870320        21.427600479738
  C        41.8314481997       17.1033398559        18.903102955638
  C        41.8588712192       17.1284349074        17.482618652538
  C        43.0795643106       17.2341664155        16.744161727738
  C        46.1532703116       26.6372458921        16.716069637238
  C        46.1624061398       26.6560918006        19.525721536338
  C        14.0460954221       17.8322809251        21.698904172538
  C        15.3678110647       17.9078138129        21.009576840138
  C        15.6409848775       18.9227946307        20.080387056438
  C        16.8704758441       18.9608725337        19.426392547338
  C        17.8547704375       17.9832462966        19.675701899638
  C        17.5885818053       16.9976212190        20.643545591038
  C        16.3610759269       16.9589255801        21.300986964038
  C        19.1221196121       17.9580063944        18.906505677338
  C        19.0973395466       17.9305467521        17.485052622538
  C        17.8772823215       17.8194159328        16.744973571138
  C        28.8075503153       14.0899933693       10.3886484999
  C        28.1902565353       12.9181164311       11.0772353448
  C        28.9155020195       12.1699270117       12.0162649747
  C        28.3144998466       11.0965202012       12.6690033146
  C        26.9743783800       10.7474673203       12.4062573653
  C        26.2704087089       11.4762152434       11.4310220070
  C        26.8692757934       12.5499788575       10.7767396793
  C        26.3054360704        9.6678250314       13.1678830970
  C        26.2976824187        9.6921704183       14.5889255390
  C        26.8095546426       10.8012944929       15.3347316860
  C        32.1809296981       21.2434164290       10.1424294651
  C        32.7769582208       22.4092688955       10.8637030778
  C        32.0226913275       23.0952309517       11.8282861602
  C        32.5906796256       24.1349444654       12.5585692282
  C        33.9295565559       24.5172923230       12.3463140343
  C        34.6671437080       23.8494816954       11.3505290428
  C        34.1009376490       22.8045664205       10.6216704039
  C        34.5541122083       25.5934200672       13.1504430949
  C        34.5301340192       25.5690558101       14.5722940057
  C        34.0087646129       24.4579451692       15.3077264871
  C        25.6863624463        8.6155329713       15.3080879929
  C        25.6660195617        8.6187127593       12.4948576593
  C        32.0783574426       21.2028413478        21.866303263438
  C        32.6464328870       22.3669871132        21.122904981138
  C        31.9089910414       23.0211365658        20.124059119738
  C        32.4804143051       24.0618357001        19.393558565838
  C        33.8033021159       24.4786309093        19.642388377738
  C        34.5220489138       23.8380525555        20.670131104738
  C        33.9558182337       22.7939103142        21.395971297138
  C        34.4432958238       25.5644179891        18.862448080838
  C        34.4717856715       25.5549616412        17.440314149238
  C        33.9796260373       24.4517323764        16.674082670838
  C        40.6225127325       17.1355642046        16.757751078038
  C        40.6002637682       17.1257859441        19.567084066638
  C        28.7406341925       14.0689980768        21.806679892738
  C        28.1330224818       12.9215935319        21.068603807138
  C        28.8758612218       12.2096196523        20.114328095438
  C        28.2941217920       11.1539610795        19.415862628638
  C        26.9548033496       10.7824349528        19.649109953938
  C        26.2291537881       11.4809320465        20.632114464538
  C        26.8084242125       12.5382249271        21.330781568138
  C        26.3127241451        9.6915005604        18.876870197438
  C        26.3036112061        9.7039619699        17.455296305738
  C        26.8108968459       10.8080284406        16.700605820438
  C        18.1353545215        3.1809285202       10.3171824418
  C        17.4060647131        4.2781478473       11.0157758876
  C        16.3904932266        3.9998178226       11.9434749584
  C        15.7428251702        5.0398220180       12.6069797694
  C        16.0945797970        6.3835595961       12.3671148234
  C        17.0837520124        6.6530396980       11.4031181066
  C        17.7327873739        5.6156826196       10.7380478104
  C        15.4702734929        7.4912761604       13.1301195316
  C        15.4856183531        7.4905780612       14.5518290805
  C        16.1871692446        6.4969854219       15.3050353275
  C        42.9458101620       31.8594818203       10.0728608306
  C        43.6461314529       30.7718304620       10.8168003284
  C        44.5915216136       31.0931409051       11.8030191829
  C        45.1971977090       30.0875908968       12.5506918166
  C        44.8709276497       28.7345000053       12.3356952923
  C        43.9452640688       28.4201733574       11.3223185328
  C        43.3364866917       29.4253225081       10.5742601371
  C        45.4885216502       27.6552332576       13.1389141288
  C        45.4927364994       27.6809204934       14.5606081965
  C        44.8056186228       28.6889386013       15.3072428507
  C        14.8566946836        8.5630851958       15.2642041706
  C        14.8750683303        8.5631051429       12.4515504987
  C        42.9464567435       31.9615412414        21.798764580738
  C        43.6917085292       30.8854542395        21.085369072338
  C        44.6562140782       31.1913773015        20.112971635938
  C        45.2777515992       30.1717997813        19.395262316338
  C        44.9540647009       28.8214600901        19.632960163238
  C        44.0207297741       28.5237826882        20.643882567638
  C        43.3924482184       29.5405386152        21.356051362038
  C        45.5630677503       27.7240772321        18.847670144538
  C        45.5333368651       27.7174115446        17.426372081238
  C        44.8269005525       28.7075681576        16.673428364538
  C        35.0901552837       26.6438503817        16.740147436038
  C        35.0541061134       26.6207445965        19.550477019738
  C        18.1485072351        3.2469798977        21.696374421838
  C        17.4299065401        4.3437824752        20.987127953638
  C        16.4148219285        4.0525058253        20.063411526938
  C        15.7665393741        5.0831518813        19.388028192838
  C        16.1210538120        6.4284036954        19.610924773238
  C        17.1122652647        6.7117692555        20.568364009238
  C        17.7599145528        5.6828595206        21.248140846938
  C        15.4906334545        7.5241220560        18.838473519638
  C        15.4965738786        7.5074920028        17.417341661438
  C        16.1933601831        6.5058029629        16.670641729838
  H        10.6723922804       12.4656706724        19.894561592738
  H        11.6946340839       10.5508373218        18.652674138838
  H        15.3919108629       11.1690047017        20.761635335738
  H        14.3514427204       13.0718429990        22.006806512938
  H        13.3762929616       11.6312024114        17.191119302638
  H        50.3229693744       22.7487661109        19.976925690538
  H        49.3197770780       24.6232258987        18.670885273438
  H        45.6419742017       24.1607374654        20.853091864538
  H        46.6629572939       22.2898141393        22.161327652338
  H        47.6298481955       23.5759433106        17.236021110938
  H        14.8720951865        8.5883242624        20.598350398038
  H        50.2872154710       22.7029548852       12.0601580835
  H        49.2691515673       24.5758205278       13.3601932836
  H        45.6102942202       24.1088073443       11.1463959245
  H        46.6524898282       22.2534935758        9.8321546057
  H        47.6077798828       23.5518738416       14.7968601328
  H        40.6632167224       17.1473766020       11.4273130931
  H        48.6870575102       14.0949427894        23.789794427138
  H        10.6813249147       12.4664549236       12.0930262825
  H        11.6896404565       10.5245289467       13.2967550286
  H        15.3938682550       11.1594326459       11.2060290852
  H        14.3652964879       13.0878543567        9.9907432205
  H        13.3760003595       11.6221783228       14.7530806742
  H        47.9301415579       14.2184198831        9.7108238373
  H        47.7801177918       14.3738534047        22.484911022638
  H        49.0842425259       18.5526338341       10.8675489146
  H        10.4160324606       14.1342861001        7.9986767272
  H        24.4819032712        3.0308099388        19.905130397838
  H        25.6201680399        4.8922473297        18.679600192038
  H        23.2460905756        7.7553003779        20.839684184438
  H        22.1257668806        5.8841574888        22.066185965738
  H        23.8016780298        5.7979259231        17.258449353738
  H        36.3598854461       32.1931568889        19.974019217238
  H        35.2129703634       30.3754383895        18.706420808338
  H        37.4698775429       27.4388919119        20.893665482638
  H        38.5969467115       29.2697448791        22.170975193238
  H        36.9861531137       29.4579585484        17.290417049138
  H        25.7335937154        8.6140336139        20.642694052938
  H        36.4536606423       32.2441151294       12.1118348349
  H        35.3412586730       30.4310715333       13.4119076516
  H        37.5444252307       27.4885323675       11.1765778326
  H        38.6309049362       29.3132465315        9.8631244916
  H        37.0248553774       29.4764124466       14.8533558443
  H        46.1091412807       26.5874429913       11.3855968566
  H        44.6682515093       35.1161521501        23.803714656538
  H        24.4300834831        3.0431770623       12.0930319117
  H        25.5565000511        4.8849062458       13.3451220829
  H        23.1585122651        7.7694844379       11.2412861820
  H        22.0435116794        5.9156532928        9.9895445283
  H        23.7773632945        5.7996832969       14.8199274914
  H        44.9537473935       34.3903763541        9.6952075760
  H        44.9017604809       34.2067789348        22.480375484338
  H        40.6663286834       33.2090961511       10.8532090080
  H        23.1503153911        1.9577117036        8.0054709445
  H        25.8288238546       19.6460829942        19.888029907838
  H        23.6556297942       19.6950399267        18.661529831738
  H        22.3506909881       16.2322023411        20.853031696138
  H        24.5271165723       16.2011050559        22.078729836738
  H        23.7245020459       17.6649038574        17.237593066138
  H        35.1506755994       15.4529149331        19.976802388038
  H        37.2729750832       15.4183941013        18.659512682138
  H        38.6941432637       18.8120708160        20.887700808038
  H        36.5657694515       18.8289822321        22.203781719938
  H        37.2288371594       17.4081088797        17.237108244138
  H        20.3616919630       17.9871350364        20.660924516838
  H        35.2132420132       15.4636064972       12.0677480761
  H        37.3467200196       15.4189516101       13.3702631774
  H        38.7369568098       18.8547397232       11.1878906586
  H        36.6000973697       18.8782229338        9.8827302788
  H        37.2494387662       17.4178586867       14.7945905921
  H        35.1633519105       26.6840048938       11.4074453508
  H        28.5064212465       21.0771412102        23.945653038938
  H        25.7489175963       19.6350173355       12.1529133651
  H        23.5657451262       19.6849083762       13.3728111512
  H        22.3018845190       16.1734728567       11.2358425840
  H        24.4861315838       16.1440711486       10.0148122509
  H        23.7012952754       17.6470692697       14.7961848452
  H        29.0019411887       21.7232906342        9.7585821730
  H        29.1691469429       21.7352250425        22.609688403238
  H        32.1015920987       18.5742465702       10.9720219632
  H        27.4039080263       19.0702185825        8.0695150501
  H        14.8495634247       19.6457628956       12.1430535953
  H        17.0113952053       19.6894422258       13.3871561851
  H        18.3010416165       16.1832369368       11.2561429481
  H        16.1351658333       16.1551893448       10.0116815267
  H        16.9216544821       17.6924382403       14.8523297200
  H        46.0946771071       15.4587478255       12.0831095887
  H        43.9731612321       15.4208211694       13.3985638491
  H        42.5683624135       18.8473972558       11.2099626467
  H        44.6898485293       18.8601893103        9.8848087524
  H        44.0332614459       17.3674240641       14.8499967526
  H        20.2893996683       17.9175354385       11.4236937346
  H        46.0409193462       15.3921370396        20.021149915738
  H        43.9079486538       15.3372387629        18.726989371538
  H        42.5162384705       18.7861553351        20.887370186638
  H        44.6562956680       18.8285516183        22.180867197338
  H        44.0132504104       17.3352574175        17.289793393838
  H        46.1992782264       26.6825830215        20.613168407438
  H        52.7411785089       21.0626207592        8.1946848936
  H        14.8798437745       19.6755395830        19.887195040538
  H        17.0810767694       19.7507955018        18.708623643538
  H        18.3398695959       16.2365401668        20.844126318438
  H        16.1404417635       16.1848574002        22.031970678338
  H        16.9441128049       17.7115328122        17.289612592338
  H        52.3224420130       21.6732834570        22.284097141338
  H        52.0130885886       21.7019136955        9.4956375358
  H        49.0674326287       18.6076408148        21.193977694238
  H        13.2476801545       19.0161906658        23.967304995038
  H        29.9485814290       12.4439162249       12.2186792194
  H        28.8783689373       10.5143417945       13.3947028675
  H        25.2348525222       11.2163327299       11.2211754522
  H        26.3242958511       13.1339509024       10.0390579360
  H        27.1764055932       11.6678708944       14.7931177860
  H        30.9938757126       22.7877541766       11.9996824421
  H        31.9995081112       24.6662822382       13.3012937301
  H        35.7034740228       24.1344126003       11.1806032875
  H        34.6762133301       22.2642284279        9.8732555516
  H        33.6551642020       23.5901873272       14.7583804739
  H        25.6935832838        8.6005825298       11.4067772349
  H        30.8907494513       22.6950598121        19.924517055838
  H        31.9002958949       24.5692207506        18.625754640538
  H        35.5460586102       24.1471432032        20.869445640638
  H        34.5178888119       22.2783789154        22.171049569738
  H        33.6037595397       23.5787441720        17.199929166938
  H        40.5917794944       17.0805501268        20.654438732338
  H        32.5174065337       14.1460460337        8.2543627028
  H        29.9116604938       12.4932472314        19.941427448838
  H        28.8768248423       10.5975093115        18.684855628338
  H        25.1929859763       11.2061460590        20.818643361538
  H        26.2453161161       13.0939581721        22.076885995138
  H        27.1775913179       11.6799018586        17.234472579538
  H        33.3008574310       14.1964910403        22.435153553638
  H        33.4091549625       14.4078880800        9.6062524652
  H        32.0863420250       18.5259014935        21.146696584738
  H        30.2297289104       14.1904937724        8.0692896562
  H        16.1185276686        2.9633189666       12.1300418542
  H        14.9534475592        4.8204725686       13.3227287936
  H        17.3659979003        7.6859212778       11.2097693141
  H        18.5146477340        5.8183206628       10.0100099522
  H        16.7537343490        5.7396418141       14.7715512492
  H        44.8277080571       32.1402220502       11.9773224023
  H        45.9369615626       30.3413444221       13.3067360626
  H        43.6827271359       27.3780864735       11.1520625525
  H        42.6000599079       29.1899280848        9.8094314079
  H        44.2301855743       29.4366576307       14.7689597386
  H        14.8512880999        8.5463465168       11.3633324325
  H        44.8996962535       32.2340561129        19.921437659338
  H        46.0245614230       30.4130170031        18.641927972138
  H        43.7638485864       27.4840493545        20.835538893738
  H        42.6460456666       29.3176986948        22.114576499738
  H        44.2684004097       29.4704640531        17.208005122438
  H        35.0059841491       26.6324938778        20.637751570138
  H        36.6051461191       35.1340454710        8.1806447872
  H        16.1438184744        3.0129264019        19.893569020938
  H        14.9743015731        4.8563262387        18.677839982338
  H        17.3956286475        7.7472470493        20.745420672838
  H        18.5426426559        5.8933130568        21.973059239438
  H        16.7647789277        5.7555410067        17.209065999638
  H        36.2785445500       34.4824261967        22.263018166838
  H        36.3806129213       34.2091548088        9.4995605480
  H        40.5791723572       33.2016402123        21.143824819438
  H        17.4708082761        1.9471092087        23.963851968638
  H        29.1370489651       19.4185701191       12.5234245759
  H        29.6400517315       19.5020836581        19.507422033938
  H        30.4382249955       15.7235743779        19.870340408438
  H        31.2223493548       15.5222794849       12.4989887343
  H        27.9740667804       18.2066755795       14.5281354900
  H        29.4419534194       15.2097068801       14.4108880061
  H        31.7478447391       19.5315253403        17.370279620438
  H        32.3141618701       16.0122638939        18.109778347338
  H        28.5687761571       16.7552978505        16.452384440638
  H        32.2966862249       18.3616014241       14.6837397207
  H        18.8537342607        0.8692128002       12.3351481099
  H        40.5280980275       35.2291327879        19.941938478538
  H        42.3236714218       34.4185217964        19.580591221438
  H        22.0879439056        0.6921049569       12.3514827901
  H        11.5970131427       18.7129875837       12.3824570310
  H        52.2649110557       18.4311853521        19.667044011338
  H        49.2552726619       16.4771970706        19.574382240038
  H        10.1502453019       15.7982618356       12.2928304727
  H        50.8501107955       17.6923993860        19.944085296338
  H        10.0461893046       17.3945208028       12.0519507768
  H        20.2151165027        0.0023976891       12.0419526467
  H        39.1836761875       36.1245329072        19.676296992838
 Ni        31.0242198999       17.7743893588        18.825146146638
 Ni        31.0269064719       16.3982420313       15.987771638138
 Ni        29.8842059362       18.7732151499       15.989689130738
 Ni        30.1871595898       17.4702170336       13.1607314345
  O        10.6499861708       14.3650787850        21.475623910138
  O        12.6131899442       14.6575383451        22.573681157238
  O        49.1481004706       16.8458904123        23.979488722338
  O        50.3502835194       20.9359209030        21.637853268738
  O        48.3485993010       20.5933620320        22.655699665738
  O        11.0517739583       17.0538706770        22.490495083238
  O        50.3210523315       20.8816789975       10.4068228640
  O        48.3467694868       20.5868527357        9.3271663979
  O        49.5438474005       18.2484561565       10.0682794663
  O        12.3591222314       18.6246206132        7.9997254952
  O        48.6932373066       14.1485472132        22.741102278938
  O         8.2098864988       14.2104002477        9.3225789323
  O        10.7354241349       14.5067483312       10.6643291754
  O        12.5718505314       14.5828242276        9.3284852721
  O        22.8444685887        2.0430980652        21.477047118538
  O        21.6051779532        3.5921185188        22.579761710938
  O        42.0580481365       34.1371745380        23.968760964038
  O        37.9813121405       33.1371330764        21.562396996038
  O        39.2173151653       31.5752639259        22.655683360638
  O        20.3083337717        1.0393675851        22.491832476838
  O        38.0246315064       33.1854480789       10.4155107493
  O        39.2185680319       31.5831862524        9.3272814638
  O        40.6522146537       33.7691924601       10.0601762167
  O        18.2554849727        1.3759084039        7.9968070251
  O        44.6222607408       35.1005358830        22.748532551638
  O        24.2053671238        0.0000338669        9.3208210326
  O        22.7528837605        2.0580287353       10.5839004765
  O        21.6241845597        3.5959024837        9.3421560820
  O        27.5031293405       18.7539563708        21.484492660838
  O        26.7671898837       16.9350497923        22.641967741738
  O        30.6662210083       19.3980698101        8.0526875770
  O        33.5832402661       16.2788947443        21.652500808138
  O        34.2761718205       18.1678522173        22.724611923538
  O        29.5767394250       17.0580765250        22.569035172038
  O        33.6222502465       16.3293928767       10.4097201494
  O        34.3058704169       18.2484787457        9.4047988990
  O        31.6556310558       18.3118796282       10.1504570231
  O        30.3250999155       15.1568849594        8.0826675469
  O        28.5544135133       21.0308074926        22.882330790238
  O        28.5130329930       20.9577000561        9.4119631462
  O        27.4568042941       18.6785107641       10.6597135650
  O        26.6937876605       16.9288320222        9.4127932890
  O        13.1489556710       18.6928543777       10.5875588239
  O        13.9195123110       16.9162214864        9.4051482256
  O        50.5963495507       19.3502532538        8.0204416916
  O        47.6836189610       16.3270774271       10.4172590548
  O        46.9524901916       18.1760690213        9.3240693573
  O        11.0699255010       17.0154398029        9.4896997498
  O        47.6763711887       16.3354614341        21.642984570438
  O        46.9280889087       18.2357504841        22.654873776938
  O        49.5688992429       18.3177173018        21.972022837338
  O        10.3186545517       15.1001320502        7.9970916137
  O        52.6708089568       21.0279072888        9.2418322518
  O        12.1468540717       20.8911978202        22.663019036538
  O        13.1083316601       18.6136278055        21.315392152338
  O        13.9573731442       16.9871416968        22.655142135438
  O        29.9907420195       14.4376700383       10.7285252299
  O        28.0881115324       14.6540138500        9.4929911448
  O        32.1419273704       16.8562961663        8.0769744141
  O        30.9675357491       20.9560934722       10.4059386972
  O        32.9484119118       20.6027510198        9.3379135524
  O        29.5684765417       17.0743973778        9.5766424251
  O        30.8514187573       20.8890372748        21.647615850138
  O        32.8706336908       20.5871553604        22.652986974438
  O        31.6886553257       18.2472341761        21.990122623638
  O        28.2902779059       18.6740759404        8.0736363170
  O        32.4944188152       14.2122097197        9.3298657636
  O        32.4065038699       14.2121068875        22.814697583338
  O        29.9165306475       14.4437926722        21.471231634238
  O        28.0410458408       14.5865871268        22.741681201938
  O        17.8891714533        1.9665677354       10.6628379475
  O        18.9561949213        3.5270581886        9.4079692852
  O        39.1686136678       34.1386609479        7.9971526827
  O        43.2801910514       33.0589428926       10.3316546001
  O        42.0343860529       31.5064719219        9.2416042635
  O        20.3175847448        1.0366125767        9.4802934717
  O        43.2760897829       33.1825814159        21.564753482538
  O        42.0052042977       31.5841545046        22.572770369638
  O        40.5789477058       33.7748501110        21.925568185138
  O        22.3671911636        1.3845131221        7.9979158569
  O        36.6727875981       35.0997156164        9.2332996466
  O        16.4455680128        0.0642497781        22.658070849338
  O        17.9364699065        2.0433444143        21.316173755738
  O        18.9190024295        3.5930780809        22.655725858738
  O        29.9480734584       18.7615150335        20.060473991338
  O        29.8241587617       18.9834815626       11.9825271588
  O        31.2175397853       16.2819691174        20.061487886438
  O        31.3480751711       16.3481869003       11.9908612009
  O        32.0362002291       16.7810024792        17.575805342638
  O        29.3521545583       17.1325020564        16.895403734638
  O        30.2472286092       15.7457274013       14.3368846938
  O        31.3904745800       18.0173072965       14.7537855260
  O        30.8368470353       19.2583572808        17.577003325638
  O        28.8765166932       18.5451328635       14.4112935456
  O        39.4568925207       35.2439002611        19.991766869838
  O        19.1417518289        0.0047450877       11.9905222271
  O        41.9696897438       35.1727574362        20.076973258438
  O        21.6914326888       -0.0692836269       11.8958876979
  O        51.3651157311       18.6143252708        19.995239333738
  O        10.7512075468       18.7471912954       11.9049124385
  O        50.0797834196       16.4127575488        20.081484062038
  O         9.5244337907       16.4831265416       11.9912359183
 Zr         9.2970732361       16.0527700875        22.172276831138
 Zr        49.8364149606       16.0066967927        9.7463082355
 Zr        22.0732227578        0.0295872935        22.178823452738
 Zr        42.4608904853       35.1532977668        9.8008237318
 Zr        29.6125386066       19.0726352262        22.259165223338
 Zr        29.5817752668       19.1808981168        9.8562259174
 Zr        11.0382818706       19.0518337043        9.8276918902
 Zr        11.0441647585       19.1547810303        22.240766248138
 Zr        31.3551724988       16.0971337450        9.8763425392
 Zr        31.4075071947       16.0182474166        22.282921593538
 Zr        18.6010413092       -0.0015891070        9.7635074687
 Zr        18.5065042951       -0.0078735651        22.203340246238
 Zr        12.3023248122       16.3236890057        23.980056662038
 Zr        48.6168353353       18.8331804483        8.0101688774
 Zr        20.3148037518        2.4731868929        23.980336314938
 Zr        40.6431688623       32.6867697444        23.967841567338
 Zr        28.3462049092       16.3463870173        8.0865627491
 Zr        32.6327883568       18.8384322623        8.0538954760
