     572
 i =      117, E =     -4777.6842335363
  C        11.8588398452       14.0535061728        21.731342710438
  C        12.4563665285       12.8906561032        21.012990150538
  C        11.7045630687       12.1714356644        20.071630558338
  C        12.2809604244       11.1092473460        19.379282804538
  C        13.6216555386       10.7397400685        19.606789340438
  C        14.3550006954       11.4436527435        20.579867823438
  C        13.7820731490       12.5086226831        21.271355452238
  C        14.2611655556        9.6490469022        18.833407953838
  C        14.2563690556        9.6568926836        17.411711377138
  C        13.7431562290       10.7590049220        16.657821000038
  C        49.1270216115       21.2331904451        21.869429846938
  C        48.5502975142       22.4012180608        21.142370640438
  C        49.3002786218       23.0684680325        20.161306155638
  C        48.7333437992       24.1076282572        19.428119855238
  C        47.4028676653       24.5093835141        19.656884362838
  C        46.6719813007       23.8606048570        20.670503101938
  C        47.2344408808       22.8156885281        21.399825610338
  C        46.7725238952       25.5870270725        18.859618577238
  C        46.7613517757       25.5573481307        17.437860732038
  C        47.2612649206       24.4422495821        16.694360508138
  C        14.8603236771        8.5705612457        16.698454917838
  C        14.8920069172        8.5971408565        19.510059202638
  C        49.1133402094       21.2034374208       10.1453917782
  C        48.5279522694       22.3648431108       10.8725894642
  C        49.2670975631       23.0254575123       11.8656143932
  C        48.6907436810       24.0600162943       12.5970698266
  C        47.3603913293       24.4568987445       12.3587104082
  C        46.6400859148       23.8121126212       11.3350372775
  C        47.2136604189       22.7762116336       10.6032667891
  C        46.7218674429       25.5318358669       13.1497251443
  C        46.7334611146       25.5281250682       14.5714308257
  C        47.2489559797       24.4289356339       15.3278099106
  C        40.6366452370       17.1621309510       15.3218523921
  C        40.6576676865       17.1878476198       12.5130406597
  C        11.8830990513       14.0865566891       10.2855614804
  C        12.4724932369       12.9108800416       10.9898786108
  C        11.7148804296       12.1774448438       11.9157291912
  C        12.2815286364       11.0949955894       12.5840968618
  C        13.6204597631       10.7215048408       12.3525009075
  C        14.3585404828       11.4373938607       11.3920243850
  C        13.7930915067       12.5185683898       10.7193534799
  C        14.2540211941        9.6246954960       13.1228732020
  C        14.2526036904        9.6445891098       14.5447106075
  C        13.7426443250       10.7535047759       15.2917757536
  C        22.5128968426        3.2443690731        21.743357821438
  C        23.2300070015        4.3485525401        21.044963313838
  C        24.2270605131        4.0663186943        20.099418290138
  C        24.8568217048        5.1043641975        19.417737281738
  C        24.5054215739        6.4469470647        19.661415717638
  C        23.5368428282        6.7206986989        20.644299126038
  C        22.9023196825        5.6844369500        21.324400403138
  C        25.1134020141        7.5519528291        18.885357734238
  C        25.0837871893        7.5449914056        17.463919856538
  C        24.3784934152        6.5472699155        16.718592884138
  C        38.2993140296       31.9288202237        21.841264373838
  C        37.5605477761       30.8402284494        21.137724461738
  C        36.5969518995       31.1472253632        20.164694017938
  C        35.9697608630       30.1292392175        19.451600509738
  C        36.2910751537       28.7784359182        19.689016941138
  C        37.2241086799       28.4788086717        20.699571986438
  C        37.8553689064       29.4957658347        21.411846403038
  C        35.6831179547       27.6898039544        18.889964648938
  C        35.7231072477       27.7042929280        17.468396490638
  C        36.4356320833       28.7048373594        16.734722795738
  C        25.7075026148        8.6140288784        16.743330134038
  C        25.7135215396        8.6255595351        19.555554398738
  C        38.3305083636       31.9616250451       10.1591673322
  C        37.6133248172       30.8884632842       10.9071357720
  C        36.6812597811       31.1978299383       11.9096278109
  C        36.0720959021       30.1803911100       12.6419239633
  C        36.3802496161       28.8273782146       12.3955699194
  C        37.2924469464       28.5278408305       11.3650864255
  C        37.9035073383       29.5418315652       10.6340273042
  C        35.7674017420       27.7288678934       13.1780341787
  C        35.7659788435       27.7243919389       14.6004352012
  C        36.4548398130       28.7152776115       15.3682539779
  C        46.1353962420       26.6207311343       15.2815696605
  C        46.0879385885       26.5802168045       12.4736783065
  C        22.4608718637        3.2560013805       10.2580656918
  C        23.1545653253        4.3643599097       10.9816260764
  C        24.1560880929        4.0777681094       11.9229633553
  C        24.7840164006        5.1074602245       12.6195861562
  C        24.4308534998        6.4536690362       12.3975933345
  C        23.4524100750        6.7334731427       11.4247621657
  C        22.8197465879        5.7040245728       10.7286406005
  C        25.0626397897        7.5512478616       13.1718242275
  C        25.0581620591        7.5440954373       14.5947073396
  C        24.3645667551        6.5478098649       15.3519669324
  C        26.6283541341       17.8606615235        21.768584835938
  C        25.3196588979       17.9070620495        21.045032139138
  C        25.0631371879       18.8970793854        20.083574884938
  C        23.8486600179       18.9176217113        19.399814202638
  C        22.8543698226       17.9507025766        19.653939878138
  C        23.1078843060       16.9832666813        20.644662885838
  C        24.3237525543       16.9579234545        21.326728316038
  C        21.5804254318       17.9343094329        18.890105450738
  C        21.5793931938       17.9076297473        17.467457630638
  C        22.7843885363       17.7804003486        16.706516733538
  C        34.4387080653       17.1952214293        21.907896155938
  C        35.7299761545       17.1527417568        21.159468417938
  C        35.9356527111       16.1912916075        20.157902824938
  C        37.1158822783       16.1860986973        19.419550459338
  C        38.1228487536       17.1396736436        19.665971721338
  C        37.9195019085       18.0815801613        20.691922036438
  C        36.7356870622       18.0934529568        21.425698512638
  C        39.3787015140       17.1525868218        18.883138601438
  C        39.3767296557       17.1765803432        17.462133233538
  C        38.1711687157       17.3067172953        16.703121809338
  C        20.3326291887       17.9243779383        16.758989150438
  C        20.3553210430       17.9393120103        19.572287971938
  C        34.4780748473       17.2486256034       10.1778852830
  C        35.7813621589       17.1814313541       10.9032980169
  C        35.9985657563       16.2005359019       11.8820690393
  C        37.1838965873       16.1890270010       12.6118549636
  C        38.1800155851       17.1572145583       12.3804042028
  C        37.9693736439       18.1133114920       11.3698508556
  C        36.7813516341       18.1302284981       10.6438822324
  C        39.4262794865       17.1789956035       13.1762342685
  C        39.4011013357       17.1904877210       14.5967845329
  C        38.1825373037       17.3111668901       15.3366385619
  C        35.1279764379       26.6473399207       15.3012658470
  C        35.1815565720       26.6573339412       12.4917893616
  C        26.5730729386       17.8279146171       10.3236869790
  C        25.2568774739       17.8712064964       11.0303007519
  C        24.9904941042       18.8762855381       11.9723491280
  C        23.7732801876       18.8989186143       12.6478091887
  C        22.7923115219       17.9169228959       12.4035666994
  C        23.0525332526       16.9372115318       11.4284333243
  C        24.2710059357       16.9121134027       10.7522172745
  C        21.5287167249       17.8968970018       13.1769568634
  C        21.5528627164       17.8871605020       14.5984746449
  C        22.7713874002       17.7707382671       15.3402538785
  C        14.0469319223       17.8283075631       10.2894824482
  C        15.3508966670       17.8836987567       11.0155702074
  C        15.6075615659       18.8844249830       11.9658809958
  C        16.8163463021       18.9031937010       12.6592427866
  C        17.8030932972       17.9241188162       12.4247877683
  C        17.5511271991       16.9477966083       11.4423316497
  C        16.3418100524       16.9242840110       10.7505909847
  C        19.0724116571       17.9055002781       13.1935582144
  C        19.0715850530       17.9020648403       14.6161139611
  C        17.8649805454       17.8032381124       15.3780189665
  C        46.8073798567       17.2206739081       10.1596228957
  C        45.5200152522       17.1663737731       10.9085968240
  C        45.3130466719       16.1946237905       11.8994693691
  C        44.1332927456       16.1863854566       12.6385213930
  C        43.1325320638       17.1499053200       12.4069326955
  C        43.3369627017       18.1014641201       11.3898912434
  C        44.5173115701       18.1138017644       10.6523112210
  C        41.8800833942       17.1698520225       13.1943336424
  C        41.8844301333       17.1711305862       14.6157509297
  C        43.0926135390       17.2616057754       15.3762594283
  C        20.3186338869       17.9130784557       15.3240228024
  C        20.2964254586       17.8861294569       12.5108008309
  C        46.7859808012       17.2310953732        21.880330825838
  C        45.4815866492       17.1272656336        21.167380509038
  C        45.2615624322       16.1342358047        20.201133111238
  C        44.0731252079       16.1136310574        19.475505421238
  C        43.0763676258       17.0828636487        19.700030355138
  C        43.2857383230       18.0439004204        20.706398478538
  C        44.4754049102       18.0712547283        21.426558779938
  C        41.8319837676       17.1150186828        18.901449202638
  C        41.8600527785       17.1413530003        17.480984313638
  C        43.0810547758       17.2450810637        16.742651549438
  C        46.1532183987       26.6371692541        16.716121869038
  C        46.1626522268       26.6561845569        19.525760656038
  C        14.0463421441       17.8319692762        21.698575208738
  C        15.3679096528       17.9065859436        21.009035335138
  C        15.6412795771       18.9201401949        20.078295979038
  C        16.8707652986       18.9571095732        19.424217299738
  C        17.8550747638       17.9797407727        19.674756356338
  C        17.5887330259       16.9956483372        20.644154074638
  C        16.3612064991       16.9579978113        21.301634733738
  C        19.1225230521       17.9536164848        18.905655077438
  C        19.0977454810       17.9254779415        17.484184060638
  C        17.8778047194       17.8137056505        16.744011186338
  C        28.8103448620       14.0928384520       10.3914623331
  C        28.1961533324       12.9183412739       11.0788537139
  C        28.9221340632       12.1714681133       12.0183856131
  C        28.3231116049       11.0963167255       12.6702825833
  C        26.9839974115       10.7439282684       12.4064171105
  C        26.2796406100       11.4710122522       11.4301702910
  C        26.8765543255       12.5463864871       10.7767136450
  C        26.3161945660        9.6633021307       13.1679651722
  C        26.3083087245        9.6876058943       14.5890959287
  C        26.8173146135       10.7981262772       15.3347618454
  C        32.1816987926       21.2410182676       10.1405811387
  C        32.7789085111       22.4057499420       10.8635083308
  C        32.0256730274       23.0918344038       11.8287031032
  C        32.5950222608       24.1311407360       12.5587166977
  C        33.9338394863       24.5128906075       12.3450547245
  C        34.6703349627       23.8447751610       11.3487602819
  C        34.1029206830       22.8000971797       10.6205299894
  C        34.5596367138       25.5892508825       13.1478455499
  C        34.5396759311       25.5641096212       14.5695609809
  C        34.0205707057       24.4523695984       15.3056146201
  C        25.6986435586        8.6101651650       15.3086104172
  C        25.6768922361        8.6138792438       12.4951572354
  C        32.0846947237       21.2050070311        21.865086383838
  C        32.6567441364       22.3674825403        21.121299078238
  C        31.9209422422       23.0230975293        20.122207353238
  C        32.4949141626       24.0616591434        19.390831283038
  C        33.8189074000       24.4748736451        19.639525310738
  C        34.5362511927       23.8330704939        20.667380109838
  C        33.9671843346       22.7908565933        21.394011494838
  C        34.4596069802       25.5597326704        18.859364062638
  C        34.4871522292       25.5495359410        17.437419867438
  C        33.9943260326       24.4460533270        16.671960698638
  C        40.6240297726       17.1508438059        16.755628667738
  C        40.6004841976       17.1385075668        19.564980595238
  C        28.7512712618       14.0706202346        21.806967506638
  C        28.1427755373       12.9218730371        21.068608093538
  C        28.8817705907       12.2194229277        20.104692610038
  C        28.3024439342       11.1615574098        19.407502103438
  C        26.9676568063       10.7791841774        19.649742600738
  C        26.2454477544       11.4689751469        20.641279729438
  C        26.8234204103       12.5275563737        21.339669496038
  C        26.3262884101        9.6874365684        18.877740679338
  C        26.3149492394        9.6998469204        17.455905528138
  C        26.8185079265       10.8052655271        16.700623775038
  C        18.1354713778        3.1810564408       10.3171736020
  C        17.4062302557        4.2782782607       11.0157795556
  C        16.3904408154        3.9999677966       11.9432480053
  C        15.7427430454        5.0399749054       12.6067168920
  C        16.0947826104        6.3836844842       12.3670981147
  C        17.0842539679        6.6531729095       11.4034116284
  C        17.7333154913        5.6157948006       10.7383831919
  C        15.4704405030        7.4913758086       13.1301386109
  C        15.4856037253        7.4906047795       14.5518536574
  C        16.1871546174        6.4969846015       15.3050234381
  C        42.9458474092       31.8595808094       10.0728571716
  C        43.6462320474       30.7718764712       10.8168132298
  C        44.5914945810       31.0932080643       11.8031301269
  C        45.1971870952       30.0876705155       12.5508232129
  C        44.8710286003       28.7345778846       12.3357541987
  C        43.9455139393       28.4202317048       11.3222547307
  C        43.3367187295       29.4253660123       10.5741890123
  C        45.4885740698       27.6552604667       13.1389500978
  C        45.4926632494       27.6808449408       14.5606481732
  C        44.8055128951       28.6888296063       15.3073008618
  C        14.8565846859        8.5630524488       15.2642360062
  C        14.8752780988        8.5632141999       12.4515464706
  C        42.9464639416       31.9616743277        21.798756585438
  C        43.6917990651       30.8855148635        21.085375727638
  C        44.6561795381       31.1914448178        20.112875809338
  C        45.2777274446       30.1718500731        19.395176013238
  C        44.9541830329       28.8215096994        19.632992786138
  C        44.0209473663       28.5238589883        20.644008021938
  C        43.3926419832       29.5406114987        21.356170311138
  C        45.5631654123       27.7240897892        18.847727180438
  C        45.5332633255       27.7173224537        17.426431680438
  C        44.8268444045       28.7074909091        16.673485785438
  C        35.1036004285       26.6387127497        16.736357834738
  C        35.0691516081       26.6171057547        19.546606311538
  C        18.1486446876        3.2470549636        21.696360405338
  C        17.4301251571        4.3438602788        20.987073503838
  C        16.4147772399        4.0526171140        20.063634469838
  C        15.7665087906        5.0832717221        19.388260087438
  C        16.1213065883        6.4284929024        19.610898799238
  C        17.1128485969        6.7118447272        20.567995614538
  C        17.7604935489        5.6829141425        21.247761402838
  C        15.4907677760        7.5241723896        18.838465968038
  C        15.4965808919        7.5074795621        17.417333451338
  C        16.1933573583        6.5057909297        16.670629161138
  H        10.6723338509       12.4653439454        19.894828809938
  H        11.6946234774       10.5505271119        18.652966213638
  H        15.3921834030       11.1694102669        20.761277847238
  H        14.3517207916       13.0721786117        22.006393921838
  H        13.3761624963       11.6311255636        17.191152568638
  H        50.3229511469       22.7483603875        19.976482044438
  H        49.3198182866       24.6228517899        18.670506509638
  H        45.6425647322       24.1615309408        20.853832388638
  H        46.6635276764       22.2905136909        22.162033857238
  H        47.6299532583       23.5759403017        17.236050337438
  H        14.8725242906        8.5884920216        20.598371139538
  H        50.2871178473       22.7025619393       12.0605879560
  H        49.2691218958       24.5754274201       13.3606133084
  H        45.6107687899       24.1095327727       11.1457949953
  H        46.6529634723       22.2541752470        9.8315328681
  H        47.6078196210       23.5518556273       14.7969069880
  H        40.6650894402       17.1525854545       11.4253512712
  H        48.6871248920       14.0949879517        23.789813967338
  H        10.6813119049       12.4662996732       12.0929181432
  H        11.6896933306       10.5243699608       13.2965749532
  H        15.3941123237       11.1598296038       11.2063737408
  H        14.3655884381       13.0882233243        9.9911657359
  H        13.3758753305       11.6221440119       14.7531369467
  H        47.9302863833       14.2183143576        9.7109852850
  H        47.7801355448       14.3738869799        22.485068359638
  H        49.0847881640       18.5528574922       10.8676610395
  H        10.4163559475       14.1342470537        7.9987081231
  H        24.4859601669        3.0271652186        19.908950791038
  H        25.6298944284        4.8852201752        18.684416893638
  H        23.2584099025        7.7543280472        20.838977372738
  H        22.1322458642        5.8866431076        22.064845483838
  H        23.8170212441        5.7911663260        17.259574925038
  H        36.3646581966       32.1913583458        19.968850011838
  H        35.2233136592       30.3717147885        18.698364056238
  H        37.4799607203       27.4386844065        20.890801587538
  H        38.6015022239       29.2715146532        22.170528798038
  H        36.9980230594       29.4543764677        17.283830005538
  H        25.7491804794        8.6087322807        20.643356025538
  H        36.4539395323       32.2420866575       12.1118755543
  H        35.3428880867       30.4267775839       13.4105654530
  H        37.5436049447       27.4876851745       11.1682209201
  H        38.6289813118       29.3147869497        9.8566284941
  H        37.0329184897       29.4725480755       14.8463946985
  H        46.1095228135       26.5877085602       11.3856479867
  H        44.6683503215       35.1162330855        23.803720801538
  H        24.4333443389        3.0394167355       12.0901308670
  H        25.5643784173        4.8780126232       13.3420475094
  H        23.1681212149        7.7681425298       11.2440687876
  H        22.0486191243        5.9175932217        9.9920568495
  H        23.7918091767        5.7926936407       14.8214337610
  H        44.9539777756       34.3905449372        9.6952839513
  H        44.9019176337       34.2068317750        22.480467703438
  H        40.6664941629       33.2094670123       10.8533295932
  H        23.1504268281        1.9580020362        8.0054757144
  H        25.8290625916       19.6439495310        19.887315283138
  H        23.6548549880       19.6923286225        18.660929557738
  H        22.3529358852       16.2271347401        20.850522745938
  H        24.5296638324       16.1970555689        22.076013318238
  H        23.7246976138       17.6604862841        17.236740664138
  H        35.1547350655       15.4577567133        19.971208195738
  H        37.2766541144       15.4323129604        18.651779958238
  H        38.6897055636       18.8253535578        20.885685704838
  H        36.5609661954       18.8341736751        22.202658023738
  H        37.2328750725       17.4316855379        17.235789256338
  H        20.3623781016       17.9833957143        20.660003441638
  H        35.2190900239       15.4644002235       12.0647292622
  H        37.3535077794       15.4252790728       13.3677488403
  H        38.7333694014       18.8662367221       11.1872971602
  H        36.5948200671       18.8849976007        9.8835098733
  H        37.2530295927       17.4380703290       14.7891793498
  H        35.1627418621       26.6815924587       11.4038621708
  H        28.4996781792       21.0746650191        23.873688415038
  H        25.7501183498       19.6330811623       12.1552730777
  H        23.5662875548       19.6826544990       13.3733912051
  H        22.3033302671       16.1725316985       11.2335777238
  H        24.4880787139       16.1441639359       10.0135428440
  H        23.7017461326       17.6434894087       14.7948764182
  H        29.0000073987       21.7254699000        9.7445461848
  H        29.1932529359       21.7199130404        22.564659262438
  H        32.0993408406       18.5778846541       10.9608759006
  H        27.4041372935       19.0666689915        8.0717822950
  H        14.8494068278       19.6433519276       12.1457936696
  H        17.0114144497       19.6856027330       13.3895229603
  H        18.3023358806       16.1840313409       11.2517624827
  H        16.1362042581       16.1570335922       10.0079487926
  H        16.9222841009       17.6865673548       14.8513343901
  H        46.0934789430       15.4599154768       12.0831310067
  H        43.9714277869       15.4253858564       13.3987215207
  H        42.5713743269       18.8529041567       11.2083182502
  H        44.6935047328       18.8622942502        9.8834162019
  H        44.0351718071       17.3752690327       14.8483728607
  H        20.2901087300       17.9168816885       11.4226913916
  H        46.0377125921       15.3942178624        20.019686550938
  H        43.9047659039       15.3442940218        18.725069807838
  H        42.5201747234       18.7957767918        20.886190619038
  H        44.6601566291       18.8329286200        22.180007336638
  H        44.0147913464       17.3448002160        17.288475766738
  H        46.1997092066       26.6828356318        20.613195336938
  H        52.7413346080       21.0626798221        8.1947276563
  H        14.8803579323       19.6728125945        19.883980315538
  H        17.0813964268       19.7459655770        18.705293833638
  H        18.3399420324       16.2348017213        20.845936843938
  H        16.1406770953       16.1849375721        22.033705130938
  H        16.9446691887       17.7050190426        17.288545995838
  H        52.3228601905       21.6733952366        22.283892535838
  H        52.0134307963       21.7021748844        9.4956772441
  H        49.0680578381       18.6078268042        21.193747352438
  H        13.2479241646       19.0159145825        23.967292488538
  H        29.9543539197       12.4478012896       12.2219054084
  H        28.8876975404       10.5155498777       13.3965655221
  H        25.2449677016       11.2087207113       11.2189371587
  H        26.3309047390       13.1287871108       10.0382929717
  H        27.1814097641       11.6657464887       14.7929477760
  H        30.9965192274       22.7851752467       11.9998685799
  H        32.0047824987       24.6631506828       13.3017326643
  H        35.7065394293       24.1295548100       11.1777662934
  H        34.6767598977       22.2593745163        9.8712749649
  H        33.6654056725       23.5854298713       14.7559840635
  H        25.7037726351        8.5960095842       11.4070417739
  H        30.9008943031       22.7013916801        19.924631185038
  H        31.9159563593       24.5710850544        18.623474376538
  H        35.5608599127       24.1402525826        20.866696240538
  H        34.5273160556       22.2741862040        22.169804141338
  H        33.6191166997       23.5736632811        17.199171548138
  H        40.5914074103       17.0914352917        20.652255272938
  H        32.5066237976       14.1498627735        8.2539388974
  H        29.9123314531       12.5152127682        19.922048053038
  H        28.8834852490       10.6124905359        18.669609028138
  H        25.2126435360       11.1866982467        20.835213202838
  H        26.2626762924       13.0759100359        22.092933860638
  H        27.1824820751       11.6783058063        17.234420408238
  H        33.3117446082       14.2334284246        22.460262441638
  H        33.4094135020       14.4124939945        9.5968651368
  H        32.0944346357       18.4879193546        21.138453623938
  H        30.2207488098       14.1935392773        8.0677743165
  H        16.1182817625        2.9634813629       12.1296006647
  H        14.9532296844        4.8206498302       13.3223241660
  H        17.3668437312        7.6860236409       11.2103822683
  H        18.5154470067        5.8184585776       10.0106385448
  H        16.7538141900        5.7397140488       14.7715337999
  H        44.8276117828       32.1403021946       11.9774646254
  H        45.9368856932       30.3414647657       13.3069151547
  H        43.6831273630       27.3781306910       11.1518757403
  H        42.6004230543       29.1900232442        9.8092210777
  H        44.2301895578       29.4366259593       14.7690058988
  H        14.8516907314        8.5465801257       11.3633191221
  H        44.8995840020       32.2341350281        19.921291037938
  H        46.0245021091       30.4131070084        18.641817546938
  H        43.7642528389       27.4841088621        20.835812559438
  H        42.6463642096       29.3178302991        22.114836784838
  H        44.2683809796       29.4704052995        17.208076662138
  H        35.0208158072       26.6297699625        20.633858703438
  H        36.6052551770       35.1341166181        8.1806535972
  H        16.1435889089        3.0130577433        19.893990317538
  H        14.9740874149        4.8564808913        18.678265665638
  H        17.3965419254        7.7472868968        20.744747774538
  H        18.5435502620        5.8933899567        21.972324067438
  H        16.7648711551        5.7556112533        17.209068060938
  H        36.2787148316       34.4824617016        22.262917577938
  H        36.3810131834       34.2090484298        9.4994711172
  H        40.5796750229       33.2022830463        21.143501317338
  H        17.4709804699        1.9474515095        23.963935997238
  H        29.1012373168       19.3922877686       12.4993492803
  H        29.8032967840       19.6450982591        19.491321551738
  H        31.6486615594       15.6950396655        19.518733473838
  H        31.2851105516       15.5738459029       12.4992970125
  H        28.0420018788       18.1121636519       14.6692531618
  H        29.4532764678       15.2064874507       14.4657058078
  H        31.7809419723       19.8199480253        17.402106151838
  H        33.0544910313       17.0395807874        17.442700806938
  H        28.6995374596       16.7992430599        16.875381291238
  H        32.3035609391       18.3727266117       14.7245103442
  H        18.8538704005        0.8692390150       12.3351974898
  H        40.5280043237       35.2289072015        19.941807745338
  H        42.3243916042       34.4191965145        19.580033856438
  H        22.0876531186        0.6921865627       12.3514603004
  H        11.5969476939       18.7127815572       12.3825679347
  H        52.2652041489       18.4312732524        19.667064189838
  H        49.2552436364       16.4770978306        19.574385547238
  H        10.1496532374       15.7982268543       12.2930204072
  H        50.8504281247       17.6924764846        19.943995349338
  H        10.0459489148       17.3944936500       12.0519311072
  H        20.2153356092        0.0024230155       12.0418773795
  H        39.1837431234       36.1244378271        19.676279563138
 Ni        31.0740870581       17.8381712632        18.745562396338
 Ni        31.0677155329       16.3785404228        16.067049173438
 Ni        29.9682945374       18.8675424132        15.991506234438
 Ni        30.2263243952       17.4976166512       13.2414723028
  O        10.6499573775       14.3650556994        21.475622219538
  O        12.6131924338       14.6575203025        22.573688506538
  O        49.1481063328       16.8458225090        23.979474903338
  O        50.3503555272       20.9357628736        21.637780065038
  O        48.3486200538       20.5933741235        22.655647624538
  O        11.0519164363       17.0537538123        22.490520116838
  O        50.3210806297       20.8816800410       10.4068799845
  O        48.3467650025       20.5868525191        9.3271740793
  O        49.5439008770       18.2483862192       10.0682297775
  O        12.3592331253       18.6246176602        7.9997310806
  O        48.6932884906       14.1485929858        22.741083148138
  O         8.2099241931       14.2103755857        9.3225314015
  O        10.7353995209       14.5067826183       10.6643206990
  O        12.5718353175       14.5828103733        9.3285002393
  O        22.8445229077        2.0428805097        21.477084928938
  O        21.6057813947        3.5923712419        22.579232351838
  O        42.0581732298       34.1373959608        23.968720170338
  O        37.9813208186       33.1371800552        21.562320003738
  O        39.2174736272       31.5754064139        22.655866663738
  O        20.3084362235        1.0396046658        22.491951495438
  O        38.0245871509       33.1854085484       10.4155319889
  O        39.2187434271       31.5833150718        9.3270086288
  O        40.6522382034       33.7693575607       10.0601701819
  O        18.2555604249        1.3761270428        7.9967955667
  O        44.6222340893       35.1005338095        22.748551958138
  O        24.2054126874        0.0000230394        9.3207751831
  O        22.7529500096        2.0577083634       10.5838388715
  O        21.6245521589        3.5961530486        9.3429011327
  O        27.5041308290       18.7510740657        21.481192156338
  O        26.7667353496       16.9351609059        22.642097867438
  O        30.6619036586       19.4005828224        8.0172836963
  O        33.5895321539       16.2736481796        21.656673299138
  O        34.2757056599       18.1681389503        22.723568851538
  O        29.5763806976       17.0594444092        22.563294486938
  O        33.6236296650       16.3297283391       10.4091212812
  O        34.3054322164       18.2491493850        9.4038502039
  O        31.6547729747       18.3162741629       10.1385339543
  O        30.3232661711       15.1590478747        8.0835112972
  O        28.5530104095       21.0316006471        22.822121970638
  O        28.5134084641       20.9560805570        9.4037613219
  O        27.4580822825       18.6791164558       10.6589726179
  O        26.6943700295       16.9286273996        9.4124941415
  O        13.1490268952       18.6927692154       10.5875512367
  O        13.9194322788       16.9162212143        9.4050503732
  O        50.5966378632       19.3502824931        8.0204403578
  O        47.6835935861       16.3270142346       10.4172604551
  O        46.9527890694       18.1761770013        9.3237896940
  O        11.0700524097       17.0154181766        9.4896085673
  O        47.6759110546       16.3355440624        21.642756197838
  O        46.9283060227       18.2358847017        22.655052395138
  O        49.5689784002       18.3176658209        21.972041870938
  O        10.3187323353       15.1000813894        7.9970940731
  O        52.6707811874       21.0278610553        9.2418166587
  O        12.1468448165       20.8912069151        22.663063010638
  O        13.1084659928       18.6135539474        21.315370186338
  O        13.9573568140       16.9871408840        22.655153636238
  O        29.9933203845       14.4431320610       10.7324605326
  O        28.0893694186       14.6536550966        9.4949824014
  O        32.1376896059       16.8538910437        8.0738212855
  O        30.9677233121       20.9552023238       10.4047268755
  O        32.9482403195       20.6014813611        9.3355167752
  O        29.5681396423       17.0753819786        9.5752817817
  O        30.8577098301       20.8956717575        21.643729860838
  O        32.8728128890       20.5872508416        22.652327302638
  O        31.6881630985       18.2469984221        21.988345205138
  O        28.2923417515       18.6747376327        8.0693903079
  O        32.4928734574       14.2133871342        9.3295619973
  O        32.4054330450       14.2160465424        22.810992661638
  O        29.9247478848       14.4412320445        21.478529658238
  O        28.0420826252       14.5887616683        22.740531547838
  O        17.8892454862        1.9666248071       10.6627887227
  O        18.9562550442        3.5271008144        9.4079391134
  O        39.1685688124       34.1387147623        7.9971458304
  O        43.2802248415       33.0589393018       10.3317136086
  O        42.0344428837       31.5064331094        9.2416192329
  O        20.3177072845        1.0368384587        9.4800681752
  O        43.2760764264       33.1826005353        21.564692508938
  O        42.0052421782       31.5841305810        22.572760249738
  O        40.5789241020       33.7749372081        21.925630284438
  O        22.3673638668        1.3846819626        7.9979676891
  O        36.6728200907       35.0997424970        9.2333078975
  O        16.4456478504        0.0642726712        22.658075389738
  O        17.9365245303        2.0433629444        21.316194766538
  O        18.9190793380        3.5931421565        22.655725119838
  O        29.9865913532       18.8342859319        19.998720440838
  O        29.8225763930       18.9747271528       11.9909829135
  O        31.2991828729       16.4193187398        20.067210567538
  O        31.3797748282       16.4113646720       12.0041278942
  O        32.1537703484       16.7077338777        17.582324994638
  O        29.5586492091       17.2215397239        17.058793520238
  O        30.2528337506       15.7535062112       14.4198401404
  O        31.4030445128       18.0221298022       14.8284001920
  O        30.9179955771       19.4035844301        17.560468650238
  O        28.8923373614       18.5428678836       14.4856364493
  O        39.4567616102       35.2437279150        19.991747747538
  O        19.1417926262        0.0047573666       11.9904939440
  O        41.9695691439       35.1726890660        20.076911927938
  O        21.6912697795       -0.0693250128       11.8959062765
  O        51.3653492119       18.6143248706        19.995210799938
  O        10.7511947923       18.7470920624       11.9049188018
  O        50.0797463851       16.4127664934        20.081503529938
  O         9.5239978450       16.4831640716       11.9912145385
 Zr         9.2977007312       16.0526547858        22.172321842738
 Zr        49.8370383545       16.0065733579        9.7462165764
 Zr        22.0734362693        0.0303270504        22.178606411238
 Zr        42.4610798395       35.1538634989        9.8009213772
 Zr        29.6158186031       19.0656984745        22.225264995238
 Zr        29.5812193175       19.1848282248        9.8440061113
 Zr        11.0388197754       19.0517639684        9.8278312244
 Zr        11.0447759914       19.1546777607        22.240624506638
 Zr        31.3538938608       16.1054370094        9.8739788772
 Zr        31.3902933039       16.0183474891        22.258242228838
 Zr        18.6013643220       -0.0009685251        9.7634003743
 Zr        18.5067684877       -0.0072828539        22.203508880238
 Zr        12.3030654084       16.3235833870        23.980061596938
 Zr        48.6178083329       18.8333685559        8.0101497699
 Zr        20.3155687425        2.4741259585        23.980275846638
 Zr        40.6436159882       32.6874588582        23.967918245238
 Zr        28.3456711754       16.3419068974        8.0839666180
 Zr        32.6258697063       18.8335422517        8.0461797549
