     572
 i =      111, E =     -4777.6891407861
  C        11.8588451896       14.0535533790        21.731256392138
  C        12.4563689729       12.8906711926        21.012936058838
  C        11.7045581903       12.1714725165        20.071572002238
  C        12.2809450264       11.1092469554        19.379273330138
  C        13.6216298525       10.7397104027        19.606779699038
  C        14.3549491157       11.4435943641        20.579898567738
  C        13.7820541440       12.5086023499        21.271354742038
  C        14.2611335853        9.6490097992        18.833408410338
  C        14.2563624348        9.6568800207        17.411714255538
  C        13.7431258947       10.7589791447        16.657823027338
  C        49.1269400635       21.2331278055        21.869338030638
  C        48.5502311007       22.4011618338        21.142304888638
  C        49.3002271240       23.0684458818        20.161271724238
  C        48.7333117934       24.1076448644        19.428128899138
  C        47.4028213804       24.5093682056        19.656865857938
  C        46.6719167952       23.8605532467        20.670447716638
  C        47.2343538823       22.8155939353        21.399725271138
  C        46.7724969182       25.5870261693        18.859607249938
  C        46.7613219981       25.5573351161        17.437850589938
  C        47.2612448683       24.4422434453        16.694348057638
  C        14.8603198936        8.5705579730        16.698448391438
  C        14.8919829981        8.5971136164        19.510061148038
  C        49.1133347647       21.2034937964       10.1453430442
  C        48.5279444139       22.3648755941       10.8725593182
  C        49.2670954314       23.0255107060       11.8655738980
  C        48.6907302033       24.0600542373       12.5970416618
  C        47.3603600980       24.4568908024       12.3587026441
  C        46.6400365329       23.8120816226       11.3350586230
  C        47.2136256842       22.7761951469       10.6032790546
  C        46.7218361586       25.5318285176       13.1497134074
  C        46.7334530736       25.5281276165       14.5714172404
  C        47.2489227676       24.4289276907       15.3277979069
  C        40.6366421896       17.1624238988       15.3223492809
  C        40.6571683083       17.1861485538       12.5135447667
  C        11.8830585122       14.0865374263       10.2855286702
  C        12.4724383566       12.9108371346       10.9898326657
  C        11.7148496112       12.1774119975       11.9157078086
  C        12.2814763452       11.0949678559       12.5841012155
  C        13.6204031752       10.7214814044       12.3524913380
  C        14.3584833366       11.4373123814       11.3919712297
  C        13.7930173034       12.5184734455       10.7192936977
  C        14.2539818916        9.6246825884       13.1228626270
  C        14.2525773984        9.6445764122       14.5447001414
  C        13.7426088607       10.7534763950       15.2917794355
  C        22.5127701491        3.2441596548        21.743289636638
  C        23.2297020647        4.3481034885        21.044530459738
  C        24.2266091787        4.0654660779        20.098971173738
  C        24.8563534759        5.1032363243        19.416921675738
  C        24.5049683592        6.4458460197        19.660326562338
  C        23.5364414551        6.7200170129        20.643136997838
  C        22.9019768385        5.6840244496        21.323629434838
  C        25.1130985792        7.5506713703        18.884306732638
  C        25.0843445243        7.5436707756        17.462875149438
  C        24.3794197562        6.5459683026        16.717222802838
  C        38.2989685420       31.9284820667        21.841587582738
  C        37.5594740381       30.8395614155        21.139052177338
  C        36.5952825171       31.1460692938        20.166433943938
  C        35.9676042492       30.1277402403        19.454204129138
  C        36.2890346434       28.7769488503        19.691763534438
  C        37.2224497508       28.4778068616        20.702119678838
  C        37.8541604660       29.4951229399        21.413603401738
  C        35.6812128310       27.6883088965        18.892347447638
  C        35.7217910453       27.7033786571        17.470754726738
  C        36.4349233813       28.7040802014        16.737849830838
  C        25.7084971851        8.6127472376        16.742719942238
  C        25.7127223483        8.6242568898        19.554804812038
  C        38.3308518736       31.9616865903       10.1595651061
  C        37.6143643946       30.8887872795       10.9085416821
  C        36.6828649071       31.1986249023       11.9114243013
  C        36.0739102418       30.1815428328       12.6443925399
  C        36.3817423870       28.8284150876       12.3983319050
  C        37.2937836356       28.5284144639       11.3678352002
  C        37.9046514643       29.5420462075       10.6361241862
  C        35.7680644394       27.7300627802       13.1803736345
  C        35.7658813045       27.7249823522       14.6027755344
  C        36.4547380826       28.7152266477       15.3714167966
  C        46.1353967559       26.6207333670       15.2815625985
  C        46.0879078239       26.5802104653       12.4736680356
  C        22.4610116287        3.2559457085       10.2579087743
  C        23.1552598539        4.3641799011       10.9810919907
  C        24.1574686398        4.0773362323       11.9216181953
  C        24.7859517448        5.1068601312       12.6179635541
  C        24.4325859817        6.4530917298       12.3965306716
  C        23.4534722184        6.7331664626       11.4244740111
  C        22.8202953158        5.7038837491       10.7285728575
  C        25.0646533344        7.5503996609       13.1708838271
  C        25.0599489200        7.5429782208       14.5937546525
  C        24.3660278950        6.5466094387       15.3505953353
  C        26.6238495408       17.8621218197        21.774410945338
  C        25.3150506192       17.9047548214        21.049554113238
  C        25.0585082869       18.8949613520        20.088225088938
  C        23.8454933736       18.9136393769        19.401860162038
  C        22.8523430122       17.9451132458        19.654288075638
  C        23.1059122744       16.9771796310        20.644422819138
  C        24.3208179041       16.9533404148        21.328530947838
  C        21.5788500801       17.9288357668        18.889926618038
  C        21.5780721914       17.9024726819        17.467366378538
  C        22.7831326258       17.7751174504        16.706530194538
  C        34.4399042704       17.1946758499        21.910297100538
  C        35.7318409725       17.1519365370        21.162273187438
  C        35.9387041360       16.1901537431        20.161281980738
  C        37.1184031729       16.1862358106        19.422143929838
  C        38.1241526211       17.1411949511        19.667580959038
  C        37.9202925042       18.0830638102        20.693488447338
  C        36.7367364284       18.0938009970        21.427728787038
  C        39.3795189883       17.1549067676        18.884012012538
  C        39.3771284804       17.1780079333        17.462960885538
  C        38.1713039242       17.3070064399        16.704200337938
  C        20.3315048670       17.9201642158        16.758673754638
  C        20.3537170847       17.9347415283        19.571884287038
  C        34.4772792537       17.2477772157       10.1803244930
  C        35.7806376798       17.1786414654       10.9047143272
  C        35.9971725689       16.1989037843       11.8848248724
  C        37.1827191867       16.1873491963       12.6142792715
  C        38.1795936665       17.1544273271       12.3812953513
  C        37.9696634932       18.1091025683       11.3691954250
  C        36.7815749400       18.1260577824       10.6435232578
  C        39.4258774045       17.1770736092       13.1770229652
  C        39.4008816224       17.1896980886       14.5976067318
  C        38.1824300259       17.3104290716       15.3376769543
  C        35.1270962716       26.6478349445       15.3027705276
  C        35.1818855243       26.6592332666       12.4933044336
  C        26.5722438960       17.8271561713       10.3235918034
  C        25.2557360944       17.8707958316       11.0296620577
  C        24.9892042893       18.8757168085       11.9718263415
  C        23.7722515842       18.8977168121       12.6477778499
  C        22.7916240747       17.9153916413       12.4035370506
  C        23.0518593913       16.9360739961       11.4280475465
  C        24.2701459672       16.9115068852       10.7515104273
  C        21.5281028255       17.8949301681       13.1769289255
  C        21.5520970531       17.8838511303       14.5983844713
  C        22.7704999364       17.7663456721       15.3402497662
  C        14.0467304815       17.8282810321       10.2893675427
  C        15.3507357677       17.8836296225       11.0153442392
  C        15.6075599435       18.8843891189       11.9655387021
  C        16.8163503417       18.9029413476       12.6588800013
  C        17.8027757141       17.9236274714       12.4242787939
  C        17.5507458657       16.9473290485       11.4418667690
  C        16.3414080992       16.9240496098       10.7502235867
  C        19.0719197318       17.9043870737       13.1931733454
  C        19.0708603467       17.8997981076       14.6156746991
  C        17.8640387826       17.8009896831       15.3772505655
  C        46.8072975878       17.2207249928       10.1597710423
  C        45.5198764071       17.1662405098       10.9086543839
  C        45.3129774748       16.1945321480       11.8996075027
  C        44.1331616386       16.1860856196       12.6385773503
  C        43.1321717366       17.1493898249       12.4069874422
  C        43.3365734489       18.1009558340       11.3899261288
  C        44.5170037661       18.1135279153       10.6524239621
  C        41.8797408231       17.1691859188       13.1945544989
  C        41.8843090226       17.1712471925       14.6159776838
  C        43.0926359637       17.2622834722       15.3761726040
  C        20.3177851454       17.9097648291       15.3237619350
  C        20.2959603787       17.8851947459       12.5105592339
  C        46.7861204312       17.2311004982        21.880430854738
  C        45.4818836611       17.1276807203        21.167501452538
  C        45.2616869147       16.1349033300        20.201058821038
  C        44.0733693420       16.1149461894        19.475291540838
  C        43.0770401334       17.0845811459        19.699951078738
  C        43.2865565944       18.0452998225        20.706564920138
  C        44.4760708361       18.0719939301        21.426882153938
  C        41.8326956249       17.1172196402        18.901566041338
  C        41.8604717582       17.1430348276        17.481141394638
  C        43.0813422612       17.2463924663        16.742566850138
  C        46.1532138065       26.6371711623        16.716114127938
  C        46.1626163818       26.6561778911        19.525747651538
  C        14.0459593301       17.8316870231        21.698542065538
  C        15.3672507828       17.9055274613        21.008603554938
  C        15.6408132211       18.9187899230        20.077664884438
  C        16.8701391912       18.9549224603        19.423300796738
  C        17.8538113419       17.9770049543        19.674006723438
  C        17.5872791834       16.9931957957        20.643576120538
  C        16.3599390282       16.9563928227        21.301306482938
  C        19.1211127887       17.9499018042        18.905003552738
  C        19.0965094738       17.9217897636        17.483604101138
  C        17.8766232277       17.8107987474        16.743236249038
  C        28.8106633004       14.0933288218       10.3922236102
  C        28.1977642772       12.9182470786       11.0795111665
  C        28.9242835409       12.1704720420       12.0178792086
  C        28.3255459240       11.0949103877       12.6693731843
  C        26.9861382574       10.7431286074       12.4063499485
  C        26.2810868349       11.4712204526       11.4313354509
  C        26.8777427458       12.5468690298       10.7782140095
  C        26.3184801033        9.6621997350       13.1675955567
  C        26.3104976014        9.6861940597       14.5887016605
  C        26.8195684202       10.7965017208       15.3345881651
  C        32.1808686903       21.2420134173       10.1420206455
  C        32.7772692572       22.4089506562       10.8627492045
  C        32.0241568902       23.0956958867       11.8275450216
  C        32.5936387614       24.1347824266       12.5577748691
  C        33.9327396322       24.5157811833       12.3447120956
  C        34.6690262960       23.8476217224       11.3482978011
  C        34.1013504691       22.8031534857       10.6199037754
  C        34.5589756215       25.5911997060       13.1484530338
  C        34.5386530576       25.5652484354       14.5701855878
  C        34.0190673210       24.4532194368       15.3054628652
  C        25.7003533460        8.6088771174       15.3079815002
  C        25.6790711032        8.6130641847       12.4944710331
  C        32.0815224002       21.2039966855        21.867883852138
  C        32.6534370315       22.3657502707        21.121772501138
  C        31.9178965978       23.0209785961        20.122172525738
  C        32.4923083862       24.0592409565        19.390391570438
  C        33.8160718317       24.4731228891        19.639579905838
  C        34.5329891141       23.8315645351        20.667859988638
  C        33.9638366072       22.7893946881        21.394465021938
  C        34.4571709308       25.5583858472        18.860121998638
  C        34.4852302818       25.5489831096        17.438162082438
  C        33.9925312837       24.4460497125        16.671807239638
  C        40.6242778067       17.1521537907        16.756133403038
  C        40.6014537363       17.1412209139        19.565471031938
  C        28.7476352356       14.0674065619        21.811613241738
  C        28.1382547719       12.9187266225        21.073654662838
  C        28.8770899807       12.2217850897        20.105576580538
  C        28.2990307951       11.1644152059        19.406725050338
  C        26.9657415970       10.7778518682        19.650790841138
  C        26.2437382887       11.4628474241        20.645896996138
  C        26.8205902162       12.5205750092        21.346666979738
  C        26.3256792544        9.6864036112        18.877554864538
  C        26.3154414458        9.6986471150        17.455659850138
  C        26.8197526033       10.8037580739        16.700437938538
  C        18.1354524378        3.1810499626       10.3171570977
  C        17.4062103652        4.2782732802       11.0157727475
  C        16.3904262298        3.9999496308       11.9432413516
  C        15.7427349283        5.0399548429       12.6067223713
  C        16.0947552524        6.3836672925       12.3670976903
  C        17.0842078984        6.6531569094       11.4033944490
  C        17.7332701771        5.6157889349       10.7383548888
  C        15.4704171067        7.4913579799       13.1301427151
  C        15.4855944881        7.4905954126       14.5518585368
  C        16.1871635223        6.4969847030       15.3050284160
  C        42.9458775058       31.8595743137       10.0728173051
  C        43.6462254164       30.7718689603       10.8168042601
  C        44.5915064585       31.0932045964       11.8031071693
  C        45.1971822062       30.0876623129       12.5508097397
  C        44.8709961044       28.7345716490       12.3357563670
  C        43.9454851905       28.4202231699       11.3222518620
  C        43.3367042579       29.4253580163       10.5741716634
  C        45.4885611635       27.6552611558       13.1389476607
  C        45.4926624705       27.6808493769       14.5606461256
  C        44.8055286776       28.6888526889       15.3072901398
  C        14.8565802913        8.5630547390       15.2642293896
  C        14.8752349050        8.5631879561       12.4515535573
  C        42.9464597256       31.9616626093        21.798759664738
  C        43.6917679223       30.8855127066        21.085350144338
  C        44.6562055397       31.1914346269        20.112902837938
  C        45.2777516829       30.1718473630        19.395190837038
  C        44.9541653536       28.8215122930        19.632993598738
  C        44.0209296035       28.5238430264        20.644006601538
  C        43.3926385960       29.5406059015        21.356170479738
  C        45.5631438837       27.7240959757        18.847719221138
  C        45.5332823073       27.7173398302        17.426421847438
  C        44.8268514871       28.7075006328        16.673476209538
  C        35.1022183610       26.6383917191        16.737879800438
  C        35.0667390678       26.6153458080        19.548175273538
  C        18.1486161821        3.2470361433        21.696393169038
  C        17.4300797321        4.3438490594        20.987114312738
  C        16.4147685271        4.0526041238        20.063637133838
  C        15.7664891673        5.0832531263        19.388261393538
  C        16.1212832652        6.4284743462        19.610896854038
  C        17.1128035490        6.7118315696        20.568013826738
  C        17.7604565311        5.6829038625        21.247776727738
  C        15.4907576674        7.5241592007        18.838460352038
  C        15.4965747772        7.5074756315        17.417329102038
  C        16.1933601916        6.5057860041        16.670634639638
  H        10.6723290399       12.4653763574        19.894777673938
  H        11.6945956824       10.5505279396        18.652968841338
  H        15.3921069659       11.1692949942        20.761358878938
  H        14.3516680941       13.0721072062        22.006458846438
  H        13.3760911613       11.6310835947        17.191147884038
  H        50.3229258640       22.7483853870        19.976500920138
  H        49.3197946508       24.6229062787        18.670546175238
  H        45.6424874562       24.1614532479        20.853753832638
  H        46.6634327506       22.2904114826        22.161925615738
  H        47.6298892788       23.5759175242        17.236040198438
  H        14.8724680651        8.5884550284        20.598370077638
  H        50.2871247879       22.7026263821       12.0605386454
  H        49.2691007881       24.5754750972       13.3605850720
  H        45.6106954875       24.1094481764       11.1458608658
  H        46.6529040994       22.2541159775        9.8315882897
  H        47.6077715663       23.5518420206       14.7968952282
  H        40.6644049810       17.1502336448       11.4258715683
  H        48.6870946874       14.0949629986        23.789811733538
  H        10.6812883672       12.4662748767       12.0929060585
  H        11.6896398123       10.5243576321       13.2965861564
  H        15.3940381449       11.1597107557       11.2062875198
  H        14.3654900712       13.0880900496        9.9910606738
  H        13.3758007667       11.6220949711       14.7531382996
  H        47.9302565243       14.2182356209        9.7109601447
  H        47.7801068166       14.3736583588        22.485001161638
  H        49.0847026475       18.5528360703       10.8676495402
  H        10.4162997364       14.1342469887        7.9987060380
  H        24.4854201783        3.0262307973        19.908862110138
  H        25.6294407297        4.8839052873        18.683676525638
  H        23.2581115323        7.7537350780        20.837480056338
  H        22.1319630759        5.8864050859        22.064085740438
  H        23.8177811311        5.7898052608        17.257957028938
  H        36.3628501251       32.1900990560        19.970184591838
  H        35.2208352355       30.3699831692        18.701207244738
  H        37.4784564307       27.4377843287        20.893724107638
  H        38.6006333688       29.2710715162        22.172014027438
  H        36.9973078109       29.4531815966        17.287557126938
  H        25.7478634784        8.6073035172        20.642615223438
  H        36.4556647904       32.2429806480       12.1132932283
  H        35.3449931758       30.4282953430       13.4131930734
  H        37.5448116054       27.4881608076       11.1713240645
  H        38.6298540971       29.3146352754        9.8585748623
  H        37.0332962469       29.4725700685       14.8501767682
  H        46.1094741534       26.5876843590       11.3856362949
  H        44.6683713813       35.1162357270        23.803726967638
  H        24.4347909280        3.0389334235       12.0883530604
  H        25.5668072791        4.8772693662       13.3398486615
  H        23.1690724330        7.7678858507       11.2442531381
  H        22.0486556712        5.9176087386        9.9925728664
  H        23.7935048961        5.7915333508       14.8197596740
  H        44.9540170374       34.3905588535        9.6952822647
  H        44.9020196934       34.2068680445        22.480453878138
  H        40.6665702443       33.2095014317       10.8533652224
  H        23.1504473752        1.9579460648        8.0054132429
  H        25.8236839018       19.6436480552        19.895320612638
  H        23.6512153062       19.6886184566        18.663346175938
  H        22.3516498381       16.2198893525        20.848608254338
  H        24.5271589518       16.1922899556        22.077571421938
  H        23.7230834777       17.6548208590        17.237263986238
  H        35.1594834654       15.4548986674        19.974576809438
  H        37.2792939969       15.4324963443        18.654369971438
  H        38.6897333522       18.8277613664        20.886720268638
  H        36.5613436070       18.8347270972        22.204350057238
  H        37.2328966424       17.4315988521        17.236804133438
  H        20.3606024114       17.9789334626        20.659593130938
  H        35.2170949898       15.4639004840       12.0692993023
  H        37.3515941255       15.4246480105       13.3713834986
  H        38.7342061466       18.8611788760       11.1854565780
  H        36.5956069994       18.8799868848        9.8821966615
  H        37.2526034361       17.4364279870       14.7905609207
  H        35.1635614117       26.6841302807       11.4053879116
  H        28.5063696189       21.0756928105        23.950276800438
  H        25.7485494673       19.6330120633       12.1539847057
  H        23.5648959855       19.6813126482       13.3734232357
  H        22.3027272407       16.1713466352       11.2331060133
  H        24.4874190201       16.1438717157       10.0125575239
  H        23.7007724291       17.6390380049       14.7947123532
  H        29.0060846392       21.7216986546        9.7570733140
  H        29.1661304608       21.7387744858        22.613947879938
  H        32.0993155568       18.5722821734       10.9779822548
  H        27.4006246192       19.0639482733        8.0763404792
  H        14.8494866988       19.6434126365       12.1454153043
  H        17.0116303908       19.6852705380       13.3891915811
  H        18.3018467765       16.1834550072       11.2513323459
  H        16.1355344975       16.1568560753       10.0076028486
  H        16.9214103773       17.6850123068       14.8502964777
  H        46.0934536767       15.4598866375       12.0833073842
  H        43.9714278685       15.4250727986       13.3987923040
  H        42.5708678928       18.8522587474       11.2082609897
  H        44.6930128216       18.8620390216        9.8835064823
  H        44.0350781448       17.3757210885       14.8480414848
  H        20.2898075714       17.9168880969       11.4224802587
  H        46.0375958119       15.3946565158        20.019562485138
  H        43.9046658162       15.3458190040        18.724723378938
  H        42.5211769364       18.7973402346        20.886430407538
  H        44.6610856306       18.8334002121        22.180519859338
  H        44.0151791937       17.3463556861        17.288173312338
  H        46.1996620998       26.6828000035        20.613184852438
  H        52.7412961669       21.0626563646        8.1947183321
  H        14.8801671526       19.6717602669        19.883419376638
  H        17.0811532453       19.7434946988        18.704176325238
  H        18.3381723709       16.2320181371        20.845269171238
  H        16.1389850854       16.1836305965        22.033552002938
  H        16.9433763596       17.7023446457        17.287638527238
  H        52.3227695809       21.6733766305        22.283943305938
  H        52.0133852032       21.7021505840        9.4956677870
  H        49.0679369572       18.6078033232        21.193816227038
  H        13.2478673867       19.0159550903        23.967218333338
  H        29.9566172633       12.4462873060       12.2212046981
  H        28.8906202300       10.5135341747       13.3947847360
  H        25.2461331498       11.2094325024       11.2208727380
  H        26.3316448038       13.1300076604       10.0407069856
  H        27.1847554375       11.6637254662       14.7928806534
  H        30.9949200889       22.7894059140       11.9987203251
  H        32.0034818290       24.6669862606       13.3007174308
  H        35.7054074542       24.1319102397       11.1775331309
  H        34.6752756404       22.2619930474        9.8710245341
  H        33.6641744949       23.5865584690       14.7552040877
  H        25.7058676934        8.5955223453       11.4063505431
  H        30.8974249754       22.7000518588        19.925031011238
  H        31.9134632319       24.5683826672        18.622750869838
  H        35.5574482796       24.1389443760        20.867652682638
  H        34.5237055724       22.2730587798        22.170673333238
  H        33.6173083395       23.5732334913        17.198296449838
  H        40.5926719596       17.0944709967        20.652755137938
  H        32.5056982349       14.1505024211        8.2542606065
  H        29.9058353384       12.5230285874        19.920925595438
  H        28.8801005455       10.6189627956        18.666180570238
  H        25.2120389453       11.1773090107        20.840965589538
  H        26.2602610575       13.0651813716        22.103019139238
  H        27.1839661444       11.6765677236        17.234378224338
  H        33.3111058413       14.2299047068        22.460322782038
  H        33.4097851467       14.4118636140        9.5965238492
  H        32.1107390998       18.5078428318        21.170127182638
  H        30.2189937659       14.1926895508        8.0766363646
  H        16.1182858281        2.9634607416       12.1296084118
  H        14.9532255828        4.8206267834       13.3223348476
  H        17.3667728988        7.6860101856       11.2103500544
  H        18.5153912023        5.8184469641       10.0105994330
  H        16.7538059426        5.7397037087       14.7715321938
  H        44.8276110505       32.1403034898       11.9774518392
  H        45.9368765380       30.3414623034       13.3069063269
  H        43.6830768994       27.3781221350       11.1518952163
  H        42.6003832460       29.1900120485        9.8092226248
  H        44.2301936324       29.4366428443       14.7689971579
  H        14.8516235532        8.5465357546       11.3633272057
  H        44.8996144958       32.2341251028        19.921326334838
  H        46.0245304204       30.4131091440        18.641836647738
  H        43.7642143317       27.4840913380        20.835785240738
  H        42.6463416892       29.3178110250        22.114815993238
  H        44.2684039076       29.4704271099        17.208068094338
  H        35.0179878701       26.6274592605        20.635420174138
  H        36.6052746460       35.1340912132        8.1806363875
  H        16.1435791946        3.0130442419        19.893991782138
  H        14.9740863258        4.8564614038        18.678247732538
  H        17.3964964326        7.7472720105        20.744771062638
  H        18.5434938030        5.8933688473        21.972363471938
  H        16.7648698776        5.7556031834        17.209071868738
  H        36.2787732348       34.4824044293        22.262912036638
  H        36.3810410520       34.2090352125        9.4994388180
  H        40.5795616995       33.2022068622        21.143525303338
  H        17.4709949139        1.9474267315        23.963902621538
  H        29.1224808781       19.4047874458       12.5215886667
  H        29.8536284907       19.6833272236        19.589752707538
  H        31.8895022489       15.7387161729        19.558517706438
  H        31.2949736194       15.5521612578       12.5251314128
  H        28.0217939967       18.1989207798       14.6563804510
  H        29.3318130186       15.2577026180       14.5609457599
  H        31.7108150818       19.9793351212        17.535654728738
  H        33.0146527491       16.9520132984        17.350263483538
  H        28.7513908390       16.8576620474        17.356447210738
  H        32.3147124957       18.3126637009       14.8516841159
  H        18.8538819179        0.8692436366       12.3351941203
  H        40.5282925319       35.2290080974        19.941806752638
  H        42.3241341905       34.4189276123        19.580094252938
  H        22.0877063990        0.6921611417       12.3514941745
  H        11.5969524785       18.7128208914       12.3825682067
  H        52.2649004716       18.4310624178        19.666942715738
  H        49.2546420053       16.4770605870        19.574548945738
  H        10.1497662093       15.7982213721       12.2929545488
  H        50.8500368035       17.6924947473        19.943981211538
  H        10.0460040726       17.3944740355       12.0519252051
  H        20.2153271569        0.0024433485       12.0418804156
  H        39.1840036509       36.1247615773        19.676370510638
 Ni        30.8644873739       17.7163471958        18.742852604538
 Ni        31.0329998198       16.2973162967        16.070472758338
 Ni        30.0097457497       18.8476631721        16.070662615138
 Ni        30.1850824841       17.4751820369       13.2436973636
  O        10.6499718861       14.3650900208        21.475610954738
  O        12.6131827564       14.6574998958        22.573677641938
  O        49.1481447527       16.8458426403        23.979505630238
  O        50.3503492755       20.9358198435        21.637811441438
  O        48.3486154233       20.5934006878        22.655693533138
  O        11.0518586062       17.0537854274        22.490493925338
  O        50.3210711404       20.8816799659       10.4068768730
  O        48.3467789267       20.5868293848        9.3271754882
  O        49.5438990380       18.2484167892       10.0682484793
  O        12.3591920838       18.6246251071        7.9997039711
  O        48.6932753689       14.1485458320        22.741092311238
  O         8.2099042658       14.2103714954        9.3225344532
  O        10.7353977186       14.5067527470       10.6643346259
  O        12.5718280725       14.5828159512        9.3284985110
  O        22.8444497836        2.0426856632        21.477104454838
  O        21.6057848896        3.5923181520        22.579242799838
  O        42.0581545850       34.1373710315        23.968723418238
  O        37.9812807069       33.1368376988        21.562246481138
  O        39.2174915064       31.5753120735        22.655874701138
  O        20.3084191423        1.0395847572        22.491956198938
  O        38.0246373732       33.1854863587       10.4155346153
  O        39.2187377231       31.5833079645        9.3270632773
  O        40.6522603736       33.7693300659       10.0601539937
  O        18.2555814632        1.3761189214        7.9967705961
  O        44.6222317847       35.1005307700        22.748559210438
  O        24.2054088025        0.0000157177        9.3207792945
  O        22.7529698803        2.0576601214       10.5837996050
  O        21.6245617799        3.5961597440        9.3428977338
  O        27.4962524712       18.7527153390        21.486863744938
  O        26.7658448560       16.9328986912        22.644442280338
  O        30.6648582546       19.4019425525        8.0602216760
  O        33.5905210858       16.2733699627        21.657520979938
  O        34.2756726263       18.1681896846        22.724529099638
  O        29.5756258270       17.0601001320        22.564707235238
  O        33.6212216931       16.3293827227       10.4118242441
  O        34.3058440352       18.2477582741        9.4056611799
  O        31.6553004334       18.3125841498       10.1545322700
  O        30.3228086659       15.1581472520        8.0873300174
  O        28.5541077478       21.0318202677        22.885618377038
  O        28.5129295131       20.9577635240        9.4128229445
  O        27.4572295394       18.6784453554       10.6599714665
  O        26.6943068083       16.9282129453        9.4129328415
  O        13.1489729864       18.6928049102       10.5875392897
  O        13.9193685549       16.9161961918        9.4049806431
  O        50.5965871913       19.3503212508        8.0204673174
  O        47.6835543168       16.3270264427       10.4172784914
  O        46.9527350518       18.1761613421        9.3238314586
  O        11.0699832494       17.0154402653        9.4896477400
  O        47.6760154477       16.3355281036        21.642814826438
  O        46.9285440787       18.2358570629        22.655185120638
  O        49.5689522572       18.3176972436        21.972072143238
  O        10.3187439578       15.1000786922        7.9970777196
  O        52.6707918231       21.0278697630        9.2418258300
  O        12.1468624742       20.8911998616        22.663039456538
  O        13.1083930118       18.6135594196        21.315358851038
  O        13.9572095800       16.9870544263        22.655263681338
  O        29.9941321660       14.4445064151       10.7338587528
  O        28.0897511064       14.6534568936        9.4959845559
  O        32.1375184274       16.8522608884        8.0822256422
  O        30.9672902409       20.9555146477       10.4074559468
  O        32.9483288332       20.6020854628        9.3382382387
  O        29.5695814744       17.0739663760        9.5784811995
  O        30.8543000984       20.8943409739        21.647404594238
  O        32.8718129161       20.5870157771        22.653542900438
  O        31.6862355284       18.2486845905        22.002440594038
  O        28.2892229805       18.6730234028        8.0747570464
  O        32.4925114889       14.2141681065        9.3309015054
  O        32.4058994760       14.2144853827        22.813868494038
  O        29.9189201860       14.4373715547        21.481631786538
  O        28.0386267289       14.5893679859        22.743590394838
  O        17.8892383057        1.9666218810       10.6627805620
  O        18.9562449749        3.5271189823        9.4079469847
  O        39.1685787501       34.1387347474        7.9971412356
  O        43.2801990126       33.0589450277       10.3317126694
  O        42.0344257133       31.5064540285        9.2416096747
  O        20.3177037642        1.0368346698        9.4800775296
  O        43.2760999534       33.1825850285        21.564691499338
  O        42.0052396662       31.5841210177        22.572766343938
  O        40.5789215031       33.7749325293        21.925606390038
  O        22.3673705529        1.3846437952        7.9979541192
  O        36.6728006045       35.0997488875        9.2332960181
  O        16.4456738842        0.0642391491        22.658060447438
  O        17.9365121506        2.0433628825        21.316196601238
  O        18.9190772246        3.5931219630        22.655729488138
  O        29.8944559782       18.8440246195        20.083038651038
  O        29.8237657779       18.9709939041       11.9982617037
  O        31.3415122187       16.3436947935        20.089880456038
  O        31.3753987054       16.4056321438       12.0579953783
  O        32.1528056645       16.5571515615        17.558646703538
  O        29.6458484488       17.2168796440        17.229020006938
  O        30.1617666847       15.7557383309       14.4884832801
  O        31.4152679686       17.9464545493       14.9018083310
  O        30.8794187595       19.4919461507        17.642812674338
  O        28.9119755043       18.5518451444       14.5024575554
  O        39.4569615455       35.2440054705        19.991745931538
  O        19.1417905366        0.0047558348       11.9904972311
  O        41.9694638520       35.1725517539        20.076884388738
  O        21.6912968082       -0.0693211549       11.8959132329
  O        51.3651025454       18.6142474854        19.995147635738
  O        10.7511967445       18.7471326241       11.9049318597
  O        50.0792081532       16.4127615158        20.081551884738
  O         9.5240798442       16.4831494266       11.9912030213
 Zr         9.2975054652       16.0526592620        22.172327433638
 Zr        49.8368769907       16.0065607798        9.7462460425
 Zr        22.0734344940        0.0302255341        22.178630649238
 Zr        42.4610798900       35.1538638122        9.8009225944
 Zr        29.6026096577       19.0794357847        22.251234545138
 Zr        29.5815649627       19.1787486120        9.8560462260
 Zr        11.0386829766       19.0517830811        9.8278053223
 Zr        11.0445749685       19.1547012572        22.240667486738
 Zr        31.3546841239       16.1071078334        9.8846738984
 Zr        31.3881471989       16.0108275395        22.263877992938
 Zr        18.6013624007       -0.0009832165        9.7633837982
 Zr        18.5067919289       -0.0073554346        22.203423796838
 Zr        12.3027723844       16.3235526957        23.980085976238
 Zr        48.6176182907       18.8333109613        8.0101979687
 Zr        20.3155640631        2.4740769886        23.980294699238
 Zr        40.6435687971       32.6874185365        23.967844150438
 Zr        28.3460145354       16.3409970810        8.0810814704
 Zr        32.6239414542       18.8310603930        8.0545697942
