     562
 i =       24, E =     -4678.9239482460
  C        11.8585895728       14.0534059542        21.731339714038
  C        12.4560044738       12.8904478759        21.013041506538
  C        11.7043381510       12.1715459301        20.071325678538
  C        12.2806868218       11.1092977263        19.379016558838
  C        13.6212552669       10.7394032190        19.606733741438
  C        14.3543874141       11.4429567485        20.580260004038
  C        13.7815201866       12.5079461194        21.271774740038
  C        14.2607108940        9.6486806743        18.833318420738
  C        14.2556144428        9.6564044837        17.411606215938
  C        13.7423352126       10.7584669398        16.657689447438
  C        49.1265813035       21.2333231508        21.869576221738
  C        48.5497362540       22.4011650506        21.142527065038
  C        49.2997449443       23.0684309880        20.161458879738
  C        48.7328008080       24.1075079670        19.428202414438
  C        47.4022773189       24.5092126997        19.656851395638
  C        46.6713485290       23.8604063568        20.670440783238
  C        47.2338101521       22.8155505318        21.399851574038
  C        46.7720528322       25.5868727568        18.859529821438
  C        46.7611747848       25.5572954498        17.437766580538
  C        47.2611965901       24.4422574657        16.694250564438
  C        14.8593723300        8.5699814162        16.698298723338
  C        14.8917546391        8.5968419053        19.509923136938
  C        49.1129887694       21.2034892828       10.1453143845
  C        48.5276613329       22.3648995450       10.8723010621
  C        49.2668121069       23.0253845991       11.8654449860
  C        48.6905436853       24.0599523073       12.5969127652
  C        47.3602219240       24.4569636687       12.3585166611
  C        46.6399288094       23.8123630308       11.3346988751
  C        47.2134279990       22.7764449885       10.6028952138
  C        46.7217811968       25.5318775207       13.1495999572
  C        46.7335044709       25.5281834928       14.5713068528
  C        47.2489751276       24.4289911348       15.3276963896
  C        40.6024986812       17.0915923957       15.3083700391
  C        40.6026714270       17.1025623478       12.4965778936
  C        11.8825008455       14.0863521666       10.2855063845
  C        12.4714201089       12.9103100012       10.9895820372
  C        11.7138485279       12.1774657011       11.9159510813
  C        12.2801576011       11.0948440594       12.5843256700
  C        13.6187947237       10.7205568741       12.3522661786
  C        14.3567722597       11.4356918005       11.3911270644
  C        13.7916211235       12.5170230975       10.7184732416
  C        14.2522521425        9.6237344070       13.1226959575
  C        14.2511234449        9.6437722939       14.5445415186
  C        13.7414786952       10.7528052247       15.2916427702
  C        22.5034239259        3.2434200012        21.733081309938
  C        23.1991153650        4.3456535512        21.010315697438
  C        24.1954117746        4.0616747330        20.064559704038
  C        24.8142946384        5.0973244702        19.369303131238
  C        24.4520275224        6.4394813666        19.599000161838
  C        23.4771633469        6.7149517375        20.575450393838
  C        22.8545711144        5.6812131997        21.269865090038
  C        25.0677039024        7.5442307620        18.829280691738
  C        25.0783478690        7.5332542259        17.407834248738
  C        24.3946505478        6.5329281889        16.647021881438
  C        38.3011756794       31.9264899101        21.837700426538
  C        37.5686355833       30.8364669449        21.128184362938
  C        36.6081381039       31.1409474549        20.150966262438
  C        35.9859799432       30.1219131690        19.434087237338
  C        36.3077374660       28.7708404153        19.671384849338
  C        37.2388854474       28.4739426297        20.684926356438
  C        37.8653993554       29.4918106881        21.400663493238
  C        35.7001636461       27.6796291761        18.873704425938
  C        35.7341541324       27.6924545194        17.451569467038
  C        36.4415898288       28.6933556625        16.713834835038
  C        25.7207298093        8.6009095682        16.701433281838
  C        25.6447204914        8.6223916746        19.512121041838
  C        38.3270933333       31.9601490977       10.1567837962
  C        37.6032504136       30.8856265115       10.8972839080
  C        36.6732337928       31.1925726946       11.9026509413
  C        36.0602883021       30.1734170445       12.6297152877
  C        36.3619239369       28.8199829875       12.3763772309
  C        37.2695711327       28.5231398043       11.3408036390
  C        37.8846384264       29.5388258818       10.6148630150
  C        35.7517081050       27.7198867179       13.1601373913
  C        35.7607023934       27.7127835744       14.5828592297
  C        36.4535805587       28.7036056204       15.3470948136
  C        46.1354254964       26.6207711575       15.2814598358
  C        46.0877664139       26.5802194081       12.4735708891
  C        22.4751694352        3.2562751056       10.2488736339
  C        23.2021543624        4.3609487156       10.9479800068
  C        24.2133998663        4.0651581175       11.8765017199
  C        24.8675279297        5.0890181770       12.5581008683
  C        24.5320366186        6.4396392882       12.3350493965
  C        23.5487957450        6.7286060720       11.3697559093
  C        22.8900522026        5.7048348457       10.6878964114
  C        25.1706352106        7.5302225035       13.1169241553
  C        25.1309093251        7.5256032688       14.5397067448
  C        24.4159400644        6.5319745441       15.2805665456
  C        26.5570477689       17.8287158954        21.777651453338
  C        25.2567018482       17.8899353415        21.052587615038
  C        25.0069663907       18.8981091458        20.108772356538
  C        23.7995870927       18.9267019450        19.415541966538
  C        22.8100614650       17.9505028515        19.646209142538
  C        23.0548175220       16.9660728594        20.621720070038
  C        24.2636117762       16.9322699822        21.313045062538
  C        21.5450508663       17.9428279332        18.873844820438
  C        21.5542520612       17.9338270017        17.451967551238
  C        22.7646090353       17.8196910738        16.697749501238
  C        34.4180453599       17.2186759579        21.903959065338
  C        35.7149431867       17.1540962578        21.166857132738
  C        35.9082797553       16.1931774558        20.161934336438
  C        37.0919121970       16.1694713653        19.428641810138
  C        38.1146823998       17.1067771701        19.675828953538
  C        37.9235061676       18.0466995318        20.707212369938
  C        36.7383800296       18.0747955154        21.439630488138
  C        39.3673897711       17.1123600633        18.883432323738
  C        39.3569659672       17.1227072116        17.460637323438
  C        38.1468864666       17.2483129653        16.708633830938
  C        20.3109006354       17.9537501900        16.739053321338
  C        20.3190476797       17.9368113594        19.551492535338
  C        34.3633579724       17.1847364795       10.2644849888
  C        35.6716102813       17.0980588392       10.9725696253
  C        35.9042366680       16.1263790305       11.9588405578
  C        37.1094062194       16.1079510202       12.6570043324
  C        38.1146899980       17.0597861769       12.3917246851
  C        37.8889669114       18.0014367009       11.3695392066
  C        36.6839996080       18.0246584278       10.6728300257
  C        39.3745979651       17.0883316217       13.1704122393
  C        39.3606628803       17.1110784345       14.5925222829
  C        38.1487478320       17.2407761425       15.3420341502
  C        35.1294935715       26.6336724888       15.2870000185
  C        35.1605012620       26.6490135660       12.4773120433
  C        26.5632414779       17.8227798875       10.3284722216
  C        25.2513386059       17.8772442697       11.0305691877
  C        24.9783751264       18.9038348891       11.9473857850
  C        23.7603159137       18.9342142850       12.6197395461
  C        22.7876226423       17.9402911148       12.3953742004
  C        23.0536499354       16.9394093305       11.4436479116
  C        24.2727409896       16.9051240771       10.7710397584
  C        21.5228727762       17.9284081922       13.1649400786
  C        21.5423794603       17.9255179904       14.5859040680
  C        22.7589054985       17.8158604248       15.3314891174
  C        14.0453420610       17.8319632687       10.2840231701
  C        15.3515752158       17.8966060422       11.0011847972
  C        15.6106556284       18.9109115772       11.9357559203
  C        16.8210747433       18.9375582100       12.6245719515
  C        17.8034482374       17.9525414393       12.3996975472
  C        17.5503003394       16.9637341671       11.4308664201
  C        16.3394723525       16.9327921773       10.7432434046
  C        19.0692602841       17.9377873009       13.1705075534
  C        19.0611370213       17.9370820390       14.5920972236
  C        17.8499344877       17.8383883158       15.3466810036
  C        46.7976827685       17.2160292073       10.1568779278
  C        45.4985095919       17.1450946516       10.8932721533
  C        45.2865272895       16.1617047627       11.8726349410
  C        44.0987220577       16.1341581044       12.6004810311
  C        43.0878144072       17.0897029068       12.3743607274
  C        43.2958365135       18.0508674699       11.3659001169
  C        44.4847834919       18.0823213779       10.6387909125
  C        41.8329621036       17.0964533241       13.1670159889
  C        41.8451951834       17.1021325457       14.5906337557
  C        43.0574987720       17.2005239699       15.3440591651
  C        20.3044856278       17.9487325354       15.3051879790
  C        20.2948554933       17.9141585317       12.4926426811
  C        46.7836613730       17.2332782146        21.874143231738
  C        45.4822020615       17.1302817500        21.151133945338
  C        45.2653166707       16.1330799254        20.187647938638
  C        44.0777294134       16.1043082266        19.459608782038
  C        43.0751080536       17.0698723046        19.676385150538
  C        43.2840660628       18.0391992250        20.675720323538
  C        44.4725835126       18.0740607751        21.399176774638
  C        41.8243814869       17.0863314506        18.883258065438
  C        41.8411550148       17.0952848950        17.461239158838
  C        43.0554562481       17.1945035932        16.711237185138
  C        46.1531491335       26.6371611472        16.716009239738
  C        46.1620518441       26.6559743638        19.525652545438
  C        14.0397575112       17.8288990705        21.696413342638
  C        15.3534286042       17.8996162909        20.996577973238
  C        15.6213656335       18.9217187054        20.074118750738
  C        16.8451036677       18.9605476367        19.411148750638
  C        17.8251996477       17.9762192506        19.646566568138
  C        17.5629491326       16.9802695587        20.604340504338
  C        16.3414043888       16.9411373078        21.271208980238
  C        19.0910645176       17.9592351846        18.879046986938
  C        19.0726346168       17.9475061508        17.458135952538
  C        17.8556287285       17.8429514182        16.712697579138
  C        28.8446748972       14.1187206434       10.3782560865
  C        28.2765464606       12.9325410193       11.0757842413
  C        28.9983418461       12.2320755112       12.0537511975
  C        28.4191971814       11.1403565341       12.6988829143
  C        27.1059863526       10.7260148185       12.3925705024
  C        26.4106042648       11.4084879878       11.3777327647
  C        26.9848139289       12.4979728274       10.7318395843
  C        26.4367782965        9.6377263682       13.1428054154
  C        26.3857117775        9.6681800116       14.5632168028
  C        26.8639328589       10.7852795312       15.3192733584
  C        32.1813228757       21.2359523953       10.1118240019
  C        32.7686420925       22.3977049052       10.8395087402
  C        32.0235466442       23.0548733984       11.8315016203
  C        32.5914514261       24.0915553756       12.5668947102
  C        33.9190744582       24.5011642883       12.3328042092
  C        34.6453877228       23.8607866911       11.3101175563
  C        34.0816823198       22.8184063975       10.5769489227
  C        34.5464090129       25.5771176330       13.1360963529
  C        34.5401000999       25.5480955044       14.5585590944
  C        34.0376062561       24.4310351430       15.2977636767
  C        25.7547801225        8.5921608310       15.2672951269
  C        25.8114499451        8.5867481611       12.4558217171
  C        32.0712850238       21.1923369581        21.830167088238
  C        32.6553174959       22.3564958384        21.099590021338
  C        31.9339046321       23.0025219520        20.083535727338
  C        32.5139183240       24.0431816913        19.360952798838
  C        33.8308094620       24.4664942597        19.630926736838
  C        34.5324636266       23.8351305116        20.676274569038
  C        33.9568121490       22.7920143562        21.396898120738
  C        34.4778999906       25.5471195120        18.849565715538
  C        34.5046712942       25.5334962190        17.426878742738
  C        34.0195299686       24.4245421398        16.664460675338
  C        40.5997200428       17.0925015937        16.744160807838
  C        40.5961455071       17.1104653173        19.554845735038
  C        28.6601306182       14.0564239389        21.809910716938
  C        28.0567575006       12.9100246941        21.071092868738
  C        28.8120338776       12.1989902314        20.125663075938
  C        28.2406970026       11.1445574736        19.419064250538
  C        26.8984958905       10.7731365364        19.633623432338
  C        26.1594703731       11.4694888541        20.608314230838
  C        26.7292589307       12.5258783548        21.316725988538
  C        26.2730481130        9.6829106427        18.848063392438
  C        26.3035210497        9.6912946863        17.426791708838
  C        26.8232298162       10.7972779421        16.684169280338
  C        18.1354053005        3.1809085618       10.3170890927
  C        17.4055938309        4.2780167774       11.0154303257
  C        16.3896267895        3.9993296016       11.9425941957
  C        15.7415369975        5.0390760320       12.6061101458
  C        16.0933314616        6.3828858843       12.3667799872
  C        17.0829011189        6.6527523523       11.4033066655
  C        17.7323920307        5.6156330255       10.7382565390
  C        15.4687483239        7.4904125086       13.1299230515
  C        15.4841203441        7.4897640234       14.5516512470
  C        16.1858007946        6.4962034468       15.3047737429
  C        42.9457381774       31.8595425805       10.0728418628
  C        43.6460978025       30.7718298990       10.8168187097
  C        44.5917221947       31.0931668863       11.8027854285
  C        45.1974097232       30.0876327846       12.5504837652
  C        44.8709018658       28.7345871482       12.3356815440
  C        43.9449774947       28.4202306063       11.3225736888
  C        43.3361587539       29.4253646114       10.5745177163
  C        45.4885162321       27.6552975896       13.1388623099
  C        45.4926713727       27.6808829972       14.5605563436
  C        44.8055594781       28.6889155124       15.3071761588
  C        14.8552533102        8.5623000129       15.2640592134
  C        14.8733863493        8.5621589055       12.4513816957
  C        42.9463827928       31.9615972700        21.798782711638
  C        43.6915135895       30.8853998231        21.085223742138
  C        44.6563845953       31.1912731496        20.113198388938
  C        45.2778470603       30.1716606052        19.395444644038
  C        44.9537264013       28.8213878498        19.632819874838
  C        44.0198866612       28.5237497718        20.643262793438
  C        43.3916759551       29.5405407259        21.355457460938
  C        45.5627899411       27.7239747035        18.847589825038
  C        45.5331226351       27.7172861991        17.426295302538
  C        44.8268123165       28.7075351621        16.673360219638
  C        35.1138071828       26.6248154788        16.722664467038
  C        35.0882081244       26.6069670588        19.533103389138
  C        18.1487686952        3.2468337209        21.696535898238
  C        17.4302361393        4.3437055939        20.987068192438
  C        16.4148480582        4.0523837645        20.063715498138
  C        15.7664631813        5.0829561758        19.388284500938
  C        16.1211888964        6.4282183046        19.610741348838
  C        17.1128094205        6.7116644834        20.567740648538
  C        17.7605201879        5.6828039919        21.247582419838
  C        15.4904430950        7.5238297898        18.838312703838
  C        15.4958508379        7.5069993522        17.417158853238
  C        16.1923810048        6.5051917139        16.670382744838
  H        10.6722229445       12.4656889214        19.894256133638
  H        11.6943827811       10.5508223012        18.652486734138
  H        15.3914098806       11.1683461299        20.762027501238
  H        14.3510116186       13.0710659816        22.007274312838
  H        13.3755600999       11.6307110242        17.190963758338
  H        50.3224529496       22.7484006304        19.976711732438
  H        49.3192848766       24.6227473436        18.670606523038
  H        45.6418914722       24.1612721156        20.853660277838
  H        46.6628205100       22.2904196321        22.162038862538
  H        47.6297780841       23.5758833715        17.235908485338
  H        14.8724395294        8.5882193203        20.598238816038
  H        50.2867710427       22.7023533984       12.0605046467
  H        49.2689029209       24.5752304619       13.3605599963
  H        45.6106403898       24.1098820688       11.1454389781
  H        46.6526612100       22.2545428043        9.8311151017
  H        47.6078449379       23.5519000616       14.7968200427
  H        40.6019764515       17.0642240481       11.4087576588
  H        48.6868945093       14.0952759243        23.789705190438
  H        10.6805262776       12.4669262282       12.0935675250
  H        11.6883071702       10.5247251631       13.2971923076
  H        15.3920640591       11.1574163025       11.2049871202
  H        14.3640769051       13.0860587287        9.9897749543
  H        13.3746783256       11.6214438366       14.7530315072
  H        47.9300067021       14.2186896826        9.7112481209
  H        47.7798693994       14.3737283033        22.484988405338
  H        49.0817185362       18.5517412769       10.8668868749
  H        10.4158067227       14.1344069788        7.9990537649
  H        24.4653535319        3.0229515611        19.887616777238
  H        25.5911291879        4.8767198389        18.640430657438
  H        23.1879755993        7.7479785145        20.757179609638
  H        22.0831175405        5.8846616837        22.008545853038
  H        23.8196489487        5.7776421820        17.174967638238
  H        36.3732398438       32.1844950184        19.954897454638
  H        35.2413557985       30.3642597772        18.678995057238
  H        37.4965093704       27.4343926673        20.877012249038
  H        38.6091279583       29.2675889527        22.161748330938
  H        37.0061855913       29.4436551249        17.259723771838
  H        25.6516393957        8.6082658736        20.600489500338
  H        36.4508749088       32.2365011852       12.1121233925
  H        35.3340424450       30.4191729102       13.4013690324
  H        37.5157896684       27.4831488260       11.1368513532
  H        38.6073453998       29.3123637462        9.8346913528
  H        37.0283638325       29.4613636408       14.8224305811
  H        46.1091785942       26.5876876561       11.3855360004
  H        44.6681409130       35.1160641481        23.804022910438
  H        24.4749731233        3.0235118941       12.0484632534
  H        25.6508892184        4.8505314551       13.2744527879
  H        23.2780698417        7.7664238916       11.1861468044
  H        22.1134859242        5.9274694613        9.9596540161
  H        23.8566158574        5.7764355913       14.7366717951
  H        44.9532398741       34.3896682225        9.6946370612
  H        44.9014608228       34.2068499839        22.480402840238
  H        40.6650821213       33.2085301397       10.8528757285
  H        23.1507665729        1.9578282019        8.0010617616
  H        25.7685119714       19.6544772639        19.933716392838
  H        23.6076110262       19.7127686146        18.688457543838
  H        22.2994191096       16.2048695368        20.805564696038
  H        24.4679540783       16.1591412064        22.049946192538
  H        23.7039971576       17.7016367272        17.230212160438
  H        35.1113706848       15.4809048516        19.960401314338
  H        37.2377572779       15.4163787859        18.657380137338
  H        38.7024169708       18.7804881962        20.904083742438
  H        36.5766930730       18.8183316283        22.216663442538
  H        37.2105324492       17.3838938899        17.242487373738
  H        20.3212177360       17.9668017329        20.639605893338
  H        35.1304901835       15.3922075299       12.1723605942
  H        37.2850798297       15.3507460405       13.4179726424
  H        38.6560069482       18.7428920817       11.1555112821
  H        36.4937130083       18.7699184220        9.9041205779
  H        37.2129111169       17.3703037291       14.8062190678
  H        35.1318707187       26.6764310069       11.3896263197
  H        28.5042428730       21.0815147681        23.863163125038
  H        25.7306611479       19.6712439163       12.1147514634
  H        23.5473635416       19.7316123016       13.3284124224
  H        22.3088198132       16.1663159145       11.2665596084
  H        24.4962031507       16.1204844080       10.0522379572
  H        23.6939297622       17.6956100717       14.7921878408
  H        28.9776070868       21.7235976436        9.7584694433
  H        29.2026536778       21.6967617408        22.536348201838
  H        32.1440378802       18.6283602743       10.9309495072
  H        27.3697893547       19.0295263276        8.0780592023
  H        14.8526477233       19.6718553299       12.1072055882
  H        17.0205963406       19.7281549816       13.3447423147
  H        18.3006315189       16.1968232608       11.2499242901
  H        16.1292877519       16.1567166556       10.0112035173
  H        16.9100039219       17.7254445669       14.8144037804
  H        46.0705988761       15.4313963712       12.0588899271
  H        43.9409338441       15.3634988125       13.3519248283
  H        42.5267685050       18.7984687448       11.1825069088
  H        44.6572172518       18.8412211896        9.8790009965
  H        43.9968552467       17.3123460898       14.8101684036
  H        20.2931214421       17.9382018839       11.4043835942
  H        46.0426336263       15.3929313207        20.011615160638
  H        43.9140082261       15.3281394014        18.715152961338
  H        42.5170135295       18.7908319509        20.850420794138
  H        44.6520214340       18.8412002836        22.148518617338
  H        43.9935573981       17.3007170906        17.248500945338
  H        46.1988188530       26.6825291464        20.613100383238
  H        52.7412735319       21.0627203179        8.1946234622
  H        14.8613869259       19.6790896376        19.895491952238
  H        17.0557998195       19.7561882739        18.699805508938
  H        18.3130976903       16.2144094176        20.790206237938
  H        16.1212231210       16.1617134036        21.996583982738
  H        16.9199242157       17.7334983853        17.252754283438
  H        52.3226928740       21.6737602625        22.284427441338
  H        52.0138689812       21.7028507520        9.4955393230
  H        49.0675630870       18.6081139018        21.193989804138
  H        13.2471409297       19.0163601769        23.965871008738
  H        30.0063315540       12.5601951775       12.2989274414
  H        28.9806193830       10.5975476272       13.4562096554
  H        25.3963607461       11.1008677786       11.1319894507
  H        26.4410009398       13.0439854517        9.9654225952
  H        27.2361120181       11.6565998917       14.7888437619
  H        31.0046946569       22.7264328860       12.0236741704
  H        32.0073336178       24.5985399490       13.3317739719
  H        35.6727608039       24.1657420069       11.1218871035
  H        34.6508439259       22.3019440938        9.8074792717
  H        33.6903719926       23.5572316119       14.7537918559
  H        25.8649191678        8.5670329715       11.3686508734
  H        30.9236494659       22.6654879881        19.862588332238
  H        31.9460385059       24.5429886827        18.579291290438
  H        35.5516605003       24.1484839466        20.892832076838
  H        34.5076563057       22.2836145668        22.184563110138
  H        33.6584844033       23.5455832298        17.190970923738
  H        40.5960477869       17.0753500645        20.642654218438
  H        32.5253004097       14.1506802299        8.1471870567
  H        29.8492376516       12.4825626062        19.963326915538
  H        28.8331118666       10.5904822607        18.694260697138
  H        25.1207261398       11.1947505430        20.779932144638
  H        26.1552336651       13.0806378739        22.055215831838
  H        27.1636916174       11.6768489653        17.222965477838
  H        33.2927014290       14.2477180672        22.349213075438
  H        33.4091657682       14.3038517074        9.5502911456
  H        32.0388218576       18.4880001030        21.070478423538
  H        30.2081852309       14.1386416677        8.0877169109
  H        16.1176926584        2.9627476402       12.1287452272
  H        14.9519461050        4.8194092902       13.3215290524
  H        17.3653146353        7.6856949931       11.2105233638
  H        18.5147247286        5.8185691984       10.0108032600
  H        16.7522124474        5.7387959984       14.7712128058
  H        44.8280294722       32.1402542634       11.9769054255
  H        45.9373345279       30.3413856709       13.3063713217
  H        43.6821805679       27.3781710419       11.1525632041
  H        42.5994268307       29.1900528556        9.8099536383
  H        44.2302112241       29.4366779409       14.7688560943
  H        14.8496520694        8.5454053847       11.3631614734
  H        44.9001771402       32.2339380504        19.921975508038
  H        46.0249661273       30.4128433579        18.642403341538
  H        43.7625814591       27.4840532274        20.834540361438
  H        42.6448770763       29.3178085496        22.113628284738
  H        44.2682931239       29.4704015599        17.207966428138
  H        35.0404887212       26.6225284732        20.620367272338
  H        36.6052302028       35.1338611617        8.1807175355
  H        16.1436628759        3.0127995003        19.894191512938
  H        14.9739674865        4.8560104955        18.678420775938
  H        17.3964259757        7.7471353753        20.744442524838
  H        18.5434305189        5.8933458635        21.972286935838
  H        16.7639601003        5.7550121463        17.208752184338
  H        36.2791415959       34.4818844065        22.263074987238
  H        36.3808017408       34.2091805406        9.4999185488
  H        40.5796411882       33.2026589451        21.143731379838
  H        17.4714398341        1.9473152511        23.963923251638
  H        28.7033892182       18.8014139572       12.2420137178
  H        28.7767640380       18.8427116611        19.699504460338
  H        30.7787232970       15.3577927810        19.761626309638
  H        32.4978035698       16.3686994426       12.7447416412
  H        18.8532492650        0.8690033137       12.3350701365
  H        40.5282031268       35.2289914546        19.941921416138
  H        42.3236041792       34.4186988887        19.580433928838
  H        22.0872833519        0.6922120655       12.3518702479
  H        11.5967376459       18.7126090577       12.3825336144
  H        52.2652175705       18.4312724649        19.667803774838
  H        49.2550474213       16.4765298137        19.574006375838
  H        10.1502712461       15.7982695788       12.2923613495
  H        50.8502754539       17.6928337024        19.943742726238
  H        10.0460137264       17.3948757867       12.0518841950
  H        20.2143043981        0.0020243564       12.0420837890
  H        39.1834507759       36.1241500375        19.676079654138
 Ni        30.4345952754       17.4789217953        18.654777002638
 Ni        31.1597084564       16.2328210755       14.736421225838
 Ni        30.0572283339       17.3545249868        16.241954628138
 Ni        30.6035391337       17.6705709652       12.9915976237
  O        10.6497873432       14.3652162025        21.475595877138
  O        12.6130235260       14.6574217993        22.573658902838
  O        49.1473826518       16.8459243746        23.979627468738
  O        50.3500758113       20.9361667216        21.638032742838
  O        48.3484426956       20.5931746484        22.655805541738
  O        11.0508808258       17.0540279782        22.490475475438
  O        50.3207258336       20.8816607763       10.4068788487
  O        48.3465903624       20.5866245972        9.3270873749
  O        49.5431439678       18.2483440934       10.0683687911
  O        12.3586876905       18.6246690981        7.9997203629
  O        48.6930976951       14.1487098628        22.741043510338
  O         8.2096509452       14.2107294717        9.3227289059
  O        10.7348724518       14.5067912801       10.6643147146
  O        12.5715693282       14.5827009154        9.3286460639
  O        22.8442837619        2.0424727159        21.476702384438
  O        21.6057184621        3.5926592541        22.578564290438
  O        42.0579502318       34.1373361311        23.969052032438
  O        37.9812900600       33.1351910461        21.561702190938
  O        39.2175832787       31.5750230732        22.655492370238
  O        20.3085405108        1.0403477256        22.491996418738
  O        38.0239951108       33.1843606962       10.4157465857
  O        39.2184304552       31.5830243147        9.3271363459
  O        40.6521684934       33.7692384253       10.0602554067
  O        18.2562131259        1.3762564911        7.9968442243
  O        44.6221345106       35.1006112202        22.748692761238
  O        24.2054455568       -0.0000903730        9.3207692239
  O        22.7537448080        2.0571812255       10.5836314617
  O        21.6268786193        3.5977953986        9.3452617735
  O        27.4539658026       18.6957871670        21.480161083238
  O        26.6893912985       16.9186077900        22.660181275338
  O        30.6330900291       19.3441163886        8.0069572255
  O        33.5429627387       16.3314618732        21.647059242038
  O        34.2655934980       18.1828451332        22.735334296338
  O        29.5308233597       17.0058642364        22.570307404538
  O        33.4470458391       16.3289075784       10.5864132864
  O        34.2251230351       18.1065561185        9.4058116842
  O        31.6381295162       18.3094351735       10.1638886982
  O        30.2927045878       15.1058455181        8.0687338181
  O        28.5521372428       21.0265040154        22.816694119938
  O        28.5094137931       20.9519767486        9.3975208428
  O        27.4570483301       18.6757425886       10.6604537953
  O        26.6894695332       16.9283926949        9.4183842884
  O        13.1466145266       18.6937498892       10.5862092251
  O        13.9178561697       16.9159639751        9.4040187566
  O        50.5955182098       19.3502044485        8.0208380909
  O        47.6792017791       16.3280978421       10.4184009947
  O        46.9491481868       18.1757924087        9.3263097894
  O        11.0686897692       17.0159831761        9.4895748923
  O        47.6739485355       16.3361912264        21.641905269738
  O        46.9245077669       18.2358846856        22.652662719038
  O        49.5685759080       18.3177397463        21.972177580038
  O        10.3185195240       15.1002669455        7.9971815729
  O        52.6707110525       21.0279874288        9.2418095974
  O        12.1467976257       20.8914131623        22.663168323338
  O        13.1044708562       18.6143027376        21.316141343138
  O        13.9552016657       16.9865365744        22.655235027138
  O        30.0342958702       14.5108615088       10.6690450448
  O        28.0895462780       14.6555520444        9.4971134220
  O        32.0677012002       16.8482212876        8.0591056701
  O        30.9598663112       20.9502105224       10.3370337157
  O        32.9576522564       20.5837288608        9.3247210074
  O        29.5660340473       17.0707333791        9.5744689805
  O        30.8536994033       20.8756801961        21.577037855738
  O        32.8538099456       20.5838232497        22.644533717738
  O        31.6105786439       18.2369295425        21.906665280538
  O        28.2560478718       18.6322393674        8.0680195581
  O        32.4923464644       14.2122779864        9.2392855097
  O        32.4014990794       14.2144084784        22.736144564138
  O        29.8352661133       14.4275187300        21.478033668338
  O        27.9586955185       14.5835444694        22.742429214338
  O        17.8893007337        1.9665847171       10.6627596159
  O        18.9564161026        3.5271938894        9.4080487477
  O        39.1684979180       34.1386237387        7.9972057637
  O        43.2801760829       33.0589122680       10.3317121717
  O        42.0343889673       31.5064547664        9.2416000645
  O        20.3175522018        1.0365255406        9.4800567775
  O        43.2760962592       33.1825311772        21.564703619038
  O        42.0052370985       31.5841318293        22.572813601138
  O        40.5790607023       33.7752298900        21.925950210338
  O        22.3673699765        1.3849344192        7.9981969163
  O        36.6728557810       35.0997159476        9.2333362023
  O        16.4457779417        0.0640703400        22.657978815438
  O        17.9364471779        2.0432394342        21.316288080938
  O        18.9192041201        3.5931090305        22.655818828438
  O        29.6653130156       18.6870774248        20.066021344538
  O        29.6504029101       18.9841625727       12.0694207011
  O        31.1755716607       16.1939794450        20.067290250338
  O        31.5540486292       16.1120324045       12.8394839573
  O        39.4567860816       35.2436751279        19.991868969638
  O        19.1410888564        0.0044264728       11.9905396615
  O        41.9693912091       35.1726703898        20.077036791538
  O        21.6913117103       -0.0693586874       11.8960944510
  O        51.3650951167       18.6144075774        19.995094261938
  O        10.7509077178       18.7471337555       11.9050642693
  O        50.0793175384       16.4127173138        20.081570176838
  O         9.5242976319       16.4831909807       11.9911639545
 Zr         9.2969384122       16.0529118495        22.171968885738
 Zr        49.8360432996       16.0072187340        9.7467655473
 Zr        22.0730737317        0.0298384433        22.179291317438
 Zr        42.4608298523       35.1537729727        9.8014407186
 Zr        29.5520565329       19.0335442936        22.197977037338
 Zr        29.5667516197       19.1908751213        9.8351940772
 Zr        11.0376071306       19.0524758078        9.8279322355
 Zr        11.0435315063       19.1552321024        22.241055750238
 Zr        31.3371245353       16.0859453954        9.7766746195
 Zr        31.3310848123       15.9891379308        22.190294932938
 Zr        18.6010720611       -0.0017933915        9.7634275165
 Zr        18.5066448626       -0.0078668276        22.203465770438
 Zr        12.3013315929       16.3232418786        23.980393383338
 Zr        48.6159110033       18.8329363473        8.0104959026
 Zr        20.3161070703        2.4741777320        23.981505341738
 Zr        40.6428878808       32.6867135790        23.967995472238
 Zr        28.3111282919       16.3245271661        8.0779621041
 Zr        32.5928882727       18.8412882122        8.0137527992
  H        30.1415067710       16.3824230371        17.467461913738
  H        30.3428618359       18.4543472328        17.448905067538
