     574
 i =      263, E =     -4778.9140490696
  C        11.8589936727       14.0535763090        21.731202924038
  C        12.4566457549       12.8908870070        21.012656752938
  C        11.7048695749       12.1716414730        20.071283372938
  C        12.2813037578       11.1094876922        19.378898405938
  C        13.6220435477       10.7400238931        19.606254022238
  C        14.3553967119       11.4440812539        20.579232479538
  C        13.7824622603       12.5090276144        21.270776942038
  C        14.2614490571        9.6491674101        18.832956371538
  C        14.2563822047        9.6566874358        17.411245545138
  C        13.7431374210       10.7586706285        16.657198415538
  C        49.1269516638       21.2331526906        21.869409363338
  C        48.5501624095       22.4011618773        21.142319257938
  C        49.3001449017       23.0683855764        20.161240160238
  C        48.7332003631       24.1074982690        19.427999923538
  C        47.4027389974       24.5092833815        19.656781228738
  C        46.6718368722       23.8605020454        20.670384486238
  C        47.2343023383       22.8156250728        21.399756256238
  C        46.7724446994       25.5869719517        18.859518143638
  C        46.7612744317       25.5573652229        17.437755197238
  C        47.2611672484       24.4422920888        16.694206213638
  C        14.8600032990        8.5700965934        16.698080095138
  C        14.8923707616        8.5973689308        19.509718910238
  C        49.1133744538       21.2034337363       10.1452597593
  C        48.5280114758       22.3649738116       10.8724012461
  C        49.2670498325       23.0253208951       11.8656863374
  C        48.6907692418       24.0599443666       12.5971275725
  C        47.3605853224       24.4572327888       12.3584755143
  C        46.6403943733       23.8127038321       11.3345499796
  C        47.2139154870       22.7767566213       10.6027787746
  C        46.7220776282       25.5321524712       13.1495784210
  C        46.7335643919       25.5283439493       14.5713003362
  C        47.2488973264       24.4290586046       15.3276537245
  C        40.6298579999       17.1236569552       15.3075885509
  C        40.6387871635       17.1874338768       12.4986845799
  C        11.8830451971       14.0864409360       10.2855075574
  C        12.4721870865       12.9104602650       10.9896137284
  C        11.7144581949       12.1770111520       11.9153860440
  C        12.2808246022       11.0942990267       12.5835850385
  C        13.6196440243       10.7204526224       12.3518994157
  C        14.3578540466       11.4362906380       11.3914813998
  C        13.7926580365       12.5177418136       10.7190044332
  C        14.2530180961        9.6234890786       13.1223211809
  C        14.2519148787        9.6436829385       14.5441803119
  C        13.7423579088       10.7528529205       15.2911410180
  C        22.5109707750        3.2453304009        21.739753404438
  C        23.2227416378        4.3489696812        21.033937957138
  C        24.2192655200        4.0656514375        20.087985487138
  C        24.8473466114        5.1023497335        19.402359279138
  C        24.4947450676        6.4456021189        19.641297066738
  C        23.5243507698        6.7203563162        20.622474626138
  C        22.8920067891        5.6854792026        21.307059462038
  C        25.1070075251        7.5502614694        18.867038344938
  C        25.0930618633        7.5417952206        17.444945949738
  C        24.3970806567        6.5427618286        16.692781811938
  C        38.3039094589       31.9303632366        21.837948766838
  C        37.5775682054       30.8409854506        21.125385713438
  C        36.6206181797       31.1450722230        20.145313214638
  C        36.0062146780       30.1247753579        19.424745470138
  C        36.3341914715       28.7760241806        19.663760570138
  C        37.2622939726       28.4793787882        20.679455598838
  C        37.8809882038       29.4983666207        21.398535448038
  C        35.7320488790       27.6838570805        18.867609092338
  C        35.7631101760       27.6963324871        17.446472903438
  C        36.4697016619       28.6970003616        16.707633083138
  C        25.7228908769        8.6111114802        16.729651853738
  C        25.6990287635        8.6257780663        19.541909462038
  C        38.3286915301       31.9622238184       10.1559038057
  C        37.6064067642       30.8872752526       10.8948486312
  C        36.6765451015       31.1929553081       11.9002268571
  C        36.0680493582       30.1721163018       12.6278499299
  C        36.3755513680       28.8205196644       12.3736164788
  C        37.2820190406       28.5247156284       11.3373133432
  C        37.8924620936       29.5420328423       10.6108654295
  C        35.7712936290       27.7199090334       13.1584201482
  C        35.7835002462       27.7145454574       14.5802829253
  C        36.4787796262       28.7061983977       15.3411746707
  C        46.1355276644       26.6209366354       15.2815015772
  C        46.0882403379       26.5806532771       12.4736036184
  C        22.4672165651        3.2569952091       10.2563878741
  C        23.1747422643        4.3641667205       10.9718034661
  C        24.1846741232        4.0747773622       11.9037328784
  C        24.8251508989        5.1022750555       12.5931266883
  C        24.4772679677        6.4506639812       12.3748816974
  C        23.4914195920        6.7333359971       11.4101977097
  C        22.8465263930        5.7060642093       10.7207691088
  C        25.1140619197        7.5457694096       13.1517510461
  C        25.0971676508        7.5389658917       14.5749357359
  C        24.3967487628        6.5427381877       15.3260817362
  C        26.6355182016       17.8276585596        21.737736027638
  C        25.3233722057       17.8841776496        21.028312306238
  C        25.0735349297       18.8675725475        20.058639011838
  C        23.8545837112       18.8980455417        19.385256860738
  C        22.8517398121       17.9440774591        19.653112905538
  C        23.0983726826       16.9840365444        20.652872604238
  C        24.3171916720       16.9515324043        21.328545787338
  C        21.5785227581       17.9314416653        18.889264566638
  C        21.5800039885       17.9055429071        17.466295924638
  C        22.7857756181       17.7691788505        16.707788209738
  C        34.4378915589       17.1838171711        21.869849444738
  C        35.7364051838       17.1127788686        21.139915903538
  C        35.9418358701       16.1392809778        20.150567393438
  C        37.1259243930       16.1215647000        19.418547522038
  C        38.1350879983       17.0734875312        19.660797059938
  C        37.9346499873       18.0229552382        20.680244198538
  C        36.7472263850       18.0482175144        21.406652759738
  C        39.3884086782       17.0863008822        18.874379493838
  C        39.3799717594       17.1184863703        17.453616188738
  C        38.1704455850       17.2576871589        16.702807677738
  C        20.3341604998       17.9309594765        16.756185694938
  C        20.3524725612       17.9393710969        19.569690558038
  C        34.4734312316       17.2603141078       10.1461576775
  C        35.7655002831       17.2056939001       10.8892114945
  C        35.9712308540       16.2315124961       11.8786707638
  C        37.1541559491       16.2150056401       12.6114819690
  C        38.1605159575       17.1722105348       12.3761256052
  C        37.9577100390       18.1256965998       11.3607754846
  C        36.7729299207       18.1467561487       10.6292409796
  C        39.4098552806       17.1783078327       13.1677033193
  C        39.3907278060       17.1679554591       14.5887781791
  C        38.1764924975       17.2822997246       15.3366022721
  C        35.1532659307       26.6365759051       15.2861185159
  C        35.1821514968       26.6475573793       12.4771299693
  C        26.5829766084       17.8285238204       10.3250624962
  C        25.2697549269       17.8704420552       11.0365220143
  C        25.0052669140       18.8729911182       11.9821271964
  C        23.7870163423       18.8972208154       12.6560373024
  C        22.8020080142       17.9203682268       12.4064024551
  C        23.0613584339       16.9426167867       11.4289662267
  C        24.2808288363       16.9151652399       10.7548349471
  C        21.5359599159       17.9034290426       13.1763243549
  C        21.5577389441       17.8912698588       14.5979233133
  C        22.7740090451       17.7639337027       15.3414558634
  C        14.0487180696       17.8296994937       10.2884555930
  C        15.3546800793       17.8889874683       11.0114958291
  C        15.6120846206       18.8926272598       11.9587224327
  C        16.8220613468       18.9150681088       12.6501775868
  C        17.8101225968       17.9366902695       12.4175532971
  C        17.5577040610       16.9579584305       11.4373933157
  C        16.3472611592       16.9309404557       10.7473343730
  C        19.0791482665       17.9188006289       13.1877890956
  C        19.0762555443       17.9162955257       14.6106758284
  C        17.8682488910       17.8222207277       15.3710204826
  C        46.8045526941       17.2181828144       10.1560313895
  C        45.5114297999       17.1572947386       10.8958968616
  C        45.2927225516       16.1699462345       11.8686532974
  C        44.1087860220       16.1562224705       12.6011094989
  C        43.1154954142       17.1308316942       12.3832396825
  C        43.3303956382       18.0967998231       11.3820405943
  C        44.5143689848       18.1135288916       10.6497212601
  C        41.8642203230       17.1500253460       13.1736001717
  C        41.8743182862       17.1342816593       14.5952744595
  C        43.0863305065       17.2119463697       15.3511272984
  C        20.3221383985       17.9222981310       15.3210604946
  C        20.3047719251       17.8964840293       12.5075401290
  C        46.7867381615       17.2307433791        21.877471606238
  C        45.4868328172       17.1204294776        21.156866536338
  C        45.2781233796       16.1200785306        20.195235978538
  C        44.0931479000       16.0852156195        19.464498867038
  C        43.0879178072       17.0475577643        19.679355764838
  C        43.2876511837       18.0186688853        20.678314158838
  C        44.4738479064       18.0599945973        21.404013647238
  C        41.8417181742       17.0627409402        18.882546000938
  C        41.8635300109       17.0873550581        17.461719249638
  C        43.0810884633       17.1897430146        16.717737380338
  C        46.1532788552       26.6372933982        16.716063963038
  C        46.1625930282       26.6561192899        19.525698288138
  C        14.0460714642       17.8321535685        21.698019707838
  C        15.3667944602       17.9073494105        21.007083855938
  C        15.6393985897       18.9228444837        20.078145672138
  C        16.8682566974       18.9613075716        19.422915840238
  C        17.8527993358       17.9833025147        19.670130853638
  C        17.5869467876       16.9968817859        20.637493389338
  C        16.3602342247       16.9579276816        21.296393332438
  C        19.1206264850       17.9586881808        18.901500775738
  C        19.0981060624       17.9355625716        17.479743444638
  C        17.8790651863       17.8308169828        16.737176755038
  C        28.8299253948       14.1207991589       10.3972313430
  C        28.2362977358       12.9412256581       11.0925302597
  C        28.9621112467       12.2037277055       12.0398629315
  C        28.3709712857       11.1183032567       12.6838601684
  C        27.0400000190       10.7446622571       12.4058473064
  C        26.3366231217       11.4636874126       11.4225660421
  C        26.9244555219       12.5482343483       10.7777003050
  C        26.3721893991        9.6573394811       13.1600218344
  C        26.3471264886        9.6832536709       14.5811102629
  C        26.8407875486       10.7977645716       15.3308680567
  C        32.1844015175       21.2350780437       10.1370080724
  C        32.7805232197       22.3976143656       10.8606591792
  C        32.0314171343       23.0798393589       11.8317910063
  C        32.6034326403       24.1176114069       12.5614215922
  C        33.9400031509       24.5017930910       12.3398435796
  C        34.6719028351       23.8383500589       11.3370969872
  C        34.1023717890       22.7948121549       10.6099392363
  C        34.5687923112       25.5782485825       13.1387926073
  C        34.5603266957       25.5521322172       14.5603572923
  C        34.0487800431       24.4397147677       15.3006780580
  C        25.7305075030        8.6054628263       15.2947068761
  C        25.7382678270        8.6071375320       12.4812912309
  C        32.1029265445       21.2339363883        21.865461674738
  C        32.6927402232       22.3892018715        21.129021778238
  C        31.9583882967       23.0534526614        20.134384124438
  C        32.5415290317       24.0805069855        19.396297526338
  C        33.8727141046       24.4739886202        19.635578102038
  C        34.5892852735       23.8253343983        20.659525633938
  C        34.0111975164       22.7920728816        21.392203770838
  C        34.5155723939       25.5514939824        18.848784648138
  C        34.5317928277       25.5390005955        17.427007663438
  C        34.0337117571       24.4340282300        16.667331317438
  C        40.6241669268       17.0987276475        16.741550172038
  C        40.6127756958       17.0774590152        19.551072723738
  C        28.7189516814       14.0926561239        21.774672829838
  C        28.1182499804       12.9371120441        21.048277365038
  C        28.8603691221       12.2337059051        20.087067653938
  C        28.2862445124       11.1679510499        19.398830523538
  C        26.9532487783       10.7807591267        19.643631068438
  C        26.2291934855       11.4702776374        20.634383654838
  C        26.8024371224       12.5349077491        21.326948780638
  C        26.3169592131        9.6878993782        18.869183157038
  C        26.3193025719        9.6998036171        17.447061528038
  C        26.8245929723       10.8075529418        16.696457373438
  C        18.1355313835        3.1796699203       10.3177244211
  C        17.4053838896        4.2766602638       11.0157908538
  C        16.3906326098        3.9980997723       11.9443307964
  C        15.7425270572        5.0380478050       12.6075469444
  C        16.0932446766        6.3819476409       12.3668722199
  C        17.0816800023        6.6515700966       11.4021525461
  C        17.7310015586        5.6142989556       10.7372117327
  C        15.4689690765        7.4897820252       13.1298291652
  C        15.4845873820        7.4894735462       14.5515733871
  C        16.1864201091        6.4961385851       15.3048672639
  C        42.9457680741       31.8597611309       10.0727138834
  C        43.6460914100       30.7723385984       10.8171431207
  C        44.5914648775       31.0936702348       11.8033551406
  C        45.1972650659       30.0881225963       12.5509727485
  C        44.8712114662       28.7350059318       12.3358492335
  C        43.9455728553       28.4206810987       11.3224493950
  C        43.3366372113       29.4258054217       10.5745102178
  C        45.4888591542       27.6556541739       13.1389411889
  C        45.4928589808       27.6811261749       14.5606359978
  C        44.8056868239       28.6890732394       15.3073244279
  C        14.8559151376        8.5622279863       15.2638373674
  C        14.8738114693        8.5616245648       12.4511493967
  C        42.9463616888       31.9616866062        21.798874548338
  C        43.6918579753       30.8855278335        21.085530618738
  C        44.6562260973       31.1914267655        20.113012023138
  C        45.2777562176       30.1718477373        19.395261211738
  C        44.9542144071       28.8215035183        19.633060380838
  C        44.0210344794       28.5238493179        20.644137044938
  C        43.3927896220       29.5406119757        21.356348220138
  C        45.5631789863       27.7241079594        18.847729814138
  C        45.5333021570       27.7174031115        17.426431049038
  C        44.8269405674       28.7076308361        16.673511729638
  C        35.1407740704       26.6285607018        16.720716846038
  C        35.1270346503       26.6102395843        19.530339009538
  C        18.1485744958        3.2469444741        21.696494530538
  C        17.4302129703        4.3438793793        20.987188910338
  C        16.4148268408        4.0526642265        20.063769280538
  C        15.7666300040        5.0833034198        19.388300231238
  C        16.1214590714        6.4285497992        19.610798368838
  C        17.1130297449        6.7118831280        20.567884567838
  C        17.7605996314        5.6829566696        21.247756248538
  C        15.4909131672        7.5241826014        18.838247990838
  C        15.4964077693        7.5071913743        17.417104341538
  C        16.1929905505        6.5053207669        16.670471161938
  H        10.6725817080       12.4654026106        19.894597853938
  H        11.6949216590       10.5507408499        18.652641144138
  H        15.3926389822       11.1699914584        20.760524641938
  H        14.3521655543       13.0725958503        22.005766177338
  H        13.3764316317       11.6310008893        17.190385917138
  H        50.3228116659       22.7482531544        19.976425251238
  H        49.3196945788       24.6227033025        18.670387406338
  H        45.6424236898       24.1614425010        20.853695497038
  H        46.6633841494       22.2904473786        22.161958853138
  H        47.6297260616       23.5759000860        17.235856873938
  H        14.8730893330        8.5889622049        20.598034282038
  H        50.2869329330       22.7021210638       12.0609012608
  H        49.2691316722       24.5751129112       13.3608501053
  H        45.6112148380       24.1104336590       11.1450416331
  H        46.6533025346       22.2550149221        9.8307810004
  H        47.6077125542       23.5519761244       14.7967246671
  H        40.6412858473       17.1667668566       11.4105657181
  H        48.6873248086       14.0948784694        23.789855298238
  H        10.6809754264       12.4660806964       12.0927027108
  H        11.6888740268       10.5237819188       13.2960466936
  H        15.3933566514       11.1585422324       11.2057420195
  H        14.3653240173       13.0873386483        9.9909106622
  H        13.3756448047       11.6214466025       14.7523941589
  H        47.9302210560       14.2188225415        9.7108974379
  H        47.7802200568       14.3742932087        22.485442441038
  H        49.0844777655       18.5522782631       10.8673824585
  H        10.4164639438       14.1343065133        7.9988449027
  H        24.4805872469        3.0264037909        19.901319548338
  H        25.6214895524        4.8812656835        18.670748055138
  H        23.2434481617        7.7540217433        20.813466050238
  H        22.1218361521        5.8895201792        22.046950195938
  H        23.8310695588        5.7861631511        17.228410739738
  H        36.3832948991       32.1883208741        19.950812497738
  H        35.2632517481       30.3632411932        18.666851869138
  H        37.5228490376       27.4403179553        20.869931300038
  H        38.6232343438       29.2782276887        22.162102609838
  H        37.0357268979       29.4469524692        17.252492803138
  H        25.7245518909        8.6095219063        20.630015843738
  H        36.4518913881       32.2364629692       12.1091834572
  H        35.3418881003       30.4143706215       13.4006593161
  H        37.5309285424       27.4852509650       11.1341037522
  H        38.6154264122       29.3190724930        9.8300304391
  H        37.0527163321       29.4628676817       14.8140493772
  H        46.1098792876       26.5882472280       11.3855724567
  H        44.6705788683       35.1163488993        23.800103626938
  H        24.4584885302        3.0354028533       12.0704595525
  H        25.6100999862        4.8684152850       13.3092532082
  H        23.2097364380        7.7689841779       11.2308879457
  H        22.0698038618        5.9241677367        9.9913328187
  H        23.8300201892        5.7867021367       14.7904680570
  H        44.9542910091       34.3895892889        9.6946792657
  H        44.8998881338       34.2057800047        22.478439802638
  H        40.6652288723       33.2099880013       10.8524479698
  H        23.1521150411        1.9583321560        8.0031611071
  H        25.8478914281       19.6002741121        19.844670293538
  H        23.6660433074       19.6673613897        18.639654291538
  H        22.3365744083       16.2378119279        20.869069889738
  H        24.5178178347       16.1957849213        22.084270806338
  H        23.7254578472       17.6357364277        17.236692865738
  H        35.1555231371       15.4117344651        19.962778007538
  H        37.2845067288       15.3634633918        18.654646313238
  H        38.7079466701       18.7642373077        20.870842947738
  H        36.5720069997       18.7977671212        22.174802894938
  H        37.2337208897       17.3779709463        17.239810426138
  H        20.3580860732       17.9815897419        20.657486106238
  H        35.1894667605       15.4984736490       12.0644534097
  H        37.3149590817       15.4521353804       13.3701066987
  H        38.7276097131       18.8719683780       11.1757112852
  H        36.5974278246       18.8967499681        9.8614673962
  H        37.2441616625       17.4228608172       14.7977264111
  H        35.1534689115       26.6720926362       11.3894235600
  H        28.4992034782       21.0715991670        23.863698174338
  H        25.7658235943       19.6285210303       12.1668676720
  H        23.5820413531       19.6788879132       13.3844058481
  H        22.3098717557       16.1812479560       11.2300004314
  H        24.4953815043       16.1489058662       10.0137723256
  H        23.7047260105       17.6282849584       14.7988177082
  H        29.0081625653       21.7207135900        9.7356703091
  H        29.1940857077       21.7180339769        22.557321817538
  H        32.1304620447       18.6094711579       10.9008188300
  H        27.4007897641       19.0626210486        8.0413021780
  H        14.8532422521       19.6509855021       12.1381962760
  H        17.0166916297       19.6998333961       13.3780539424
  H        18.3093736558       16.1944270749       11.2476559070
  H        16.1421185379       16.1613746123       10.0069304691
  H        16.9256737204       17.7099436842       14.8432203903
  H        46.0677543009       15.4277052929       12.0447881389
  H        43.9390044563       15.3837635080       13.3479530097
  H        42.5711494373       18.8568655008       11.2098560107
  H        44.6982558283       18.8734335991        9.8939015690
  H        44.0272147073       17.3232294066       14.8198159356
  H        20.3005917922       17.9272059405       11.4193905867
  H        46.0601958910       15.3842881662        20.022583865438
  H        43.9335055976       15.3085810216        18.719677589638
  H        42.5157419675       18.7660603163        20.849456280038
  H        44.6495778360       18.8281721135        22.153120115138
  H        44.0180129846       17.2838183495        17.259152575238
  H        46.1996482310       26.6827041338        20.613134825338
  H        52.7413274832       21.0626738394        8.1946928339
  H        14.8784080214       19.6760873905        19.886334376538
  H        17.0783102259       19.7522038365        18.706063638338
  H        18.3382225954       16.2353942801        20.836601097238
  H        16.1404962158       16.1831818426        22.026938294838
  H        16.9444349423       17.7252383565        17.279767307838
  H        52.3227893487       21.6733748542        22.283965708538
  H        52.0132738010       21.7020544491        9.4956543414
  H        49.0683416996       18.6077645017        21.193500435138
  H        13.2479599359       19.0159786664        23.967033577638
  H        29.9878288281       12.4918923164       12.2589860812
  H        28.9369673590       10.5471694940       13.4166250566
  H        25.3080354550       11.1878396443       11.1993891658
  H        26.3767402414       13.1219485076       10.0343708070
  H        27.2056902069       11.6680089044       14.7938706117
  H        31.0035077353       22.7728949935       12.0085149142
  H        32.0173424311       24.6462361712       13.3100414473
  H        35.7062108329       24.1263674392       11.1603759115
  H        34.6722661318       22.2576246773        9.8552649472
  H        33.6907292240       23.5711724737       14.7554085201
  H        25.7741348273        8.5895934593       11.3933638065
  H        30.9330312025       22.7452432529        19.944270311938
  H        31.9658251157       24.5955509848        18.630346774138
  H        35.6195271366       24.1189087761        20.849990501238
  H        34.5705408373       22.2674498116        22.163291816638
  H        33.6642991596       23.5608893395        17.197722919738
  H        40.6085467482       17.0310124571        20.638392228138
  H        32.5099168486       14.1563803375        8.2153912510
  H        29.8888876620       12.5325921596        19.898171241538
  H        28.8693264125       10.6185766473        18.662930579238
  H        25.1976561910       11.1848204434        20.830146895338
  H        26.2390134061       13.0836550957        22.077880073438
  H        27.1741803810       11.6860027533        17.231140732738
  H        33.2923525566       14.1946178597        22.430251827838
  H        33.4116477981       14.3707056100        9.5954021792
  H        32.0849597739       18.5323478193        21.073447969838
  H        30.2173627032       14.1919641412        8.0781700305
  H        16.1199008139        2.9614480068       12.1318595632
  H        14.9537796311        4.8184757990       13.3239237040
  H        17.3633524161        7.6845083343       11.2082555892
  H        18.5123421252        5.8172092783       10.0087007643
  H        16.7529895777        5.7387531668       14.7714504530
  H        44.8276613671       32.1407439273       11.9776928613
  H        45.9370218147       30.3419338916       13.3070042737
  H        43.6832390685       27.3785723189       11.1520448856
  H        42.6002713462       29.1904536516        9.8096172336
  H        44.2303514079       29.4368876311       14.7690695289
  H        14.8499700371        8.5447289579       11.3629331742
  H        44.8995839201       32.2341188711        19.921374775938
  H        46.0245045478       30.4131248557        18.641882524438
  H        43.7643619463       27.4840924514        20.835939216138
  H        42.6465488887       29.3178277781        22.115048834738
  H        44.2684465733       29.4705042627        17.208129588438
  H        35.0846546230       26.6251199036        20.617769728638
  H        36.6077972029       35.1345365700        8.1847315718
  H        16.1435250297        3.0131136761        19.894251770038
  H        14.9741833109        4.8564755609        18.678349002738
  H        17.3967738272        7.7473188326        20.744594710138
  H        18.5435872961        5.8934975803        21.972370949038
  H        16.7647208423        5.7553222382        17.208931531838
  H        36.2780215925       34.4836686304        22.263138940738
  H        36.3853838116       34.2075471029        9.5000303305
  H        40.5797096068       33.2033291976        21.143032935338
  H        17.4753885622        1.9460656245        23.966864930938
  H        29.3217486424       19.4444419701       12.4960684711
  H        29.7190340898       19.7709214831        19.542929395638
  H        30.4920437237       15.6937536566        19.744821716438
  H        30.9914830513       15.4697169097       12.3347629130
  H        27.9526743678       17.9323165841       14.2667346369
  H        29.2468308689       15.6896547884       14.6195333456
  H        31.4846344434       19.6894399048        16.970735749738
  H        32.4927747760       16.3103388815        17.861643437738
  H        28.1920965330       17.6055520199        19.046210113938
  H        33.5435669651       16.8821804249       14.5885453290
  H        18.9043970152        0.8518717398       12.3625029520
  H        40.5246187942       35.2296825722        19.941084528338
  H        42.3253435887       34.4199893178        19.578890093638
  H        22.0968170492        0.6989809742       12.3437088147
  H        11.5969946813       18.7128618377       12.3826823117
  H        52.2651077331       18.4313251728        19.667171130238
  H        49.2549802367       16.4771164643        19.574406996638
  H        10.1502527984       15.7982183755       12.2928627602
  H        50.8503073149       17.6924346463        19.943911557638
  H        10.0463011727       17.3945568430       12.0519330634
  H        20.2921141486        0.0044563355       12.0341267359
  H        39.1818598992       36.1251912895        19.678705960538
 Ni        30.8193116683       17.8840712562        18.492732005238
 Ni        31.1966488195       16.5522660559       15.820475932238
 Ni        29.8049214178       18.5260178331       15.825311615838
 Ni        30.0177131902       17.3689737853       13.0763499916
  O        10.6500640083       14.3650894439        21.475614973038
  O        12.6132570592       14.6575089389        22.573686580038
  O        49.1479504190       16.8458421388        23.979582962238
  O        50.3502870235       20.9358667069        21.637813868238
  O        48.3485594140       20.5933323737        22.655670917038
  O        11.0520591991       17.0536999058        22.490638872338
  O        50.3210544624       20.8816898392       10.4068890333
  O        48.3467528069       20.5867522881        9.3271370364
  O        49.5443259385       18.2483817228       10.0681529165
  O        12.3592820214       18.6246156071        7.9997448720
  O        48.6933121677       14.1484622645        22.741151881938
  O         8.2099154311       14.2104858131        9.3226075893
  O        10.7353331778       14.5067058836       10.6642916887
  O        12.5718369168       14.5827960790        9.3285457300
  O        22.8448719566        2.0436905482        21.476553159438
  O        21.6064383345        3.5930376463        22.578556672938
  O        42.0595913857       34.1373504033        23.966811161938
  O        37.9818870168       33.1382689964        21.562586377438
  O        39.2181940273       31.5762484699        22.656656783338
  O        20.3092754991        1.0404316919        22.491878448738
  O        38.0253448023       33.1857167439       10.4163323324
  O        39.2193214922       31.5839592665        9.3263581527
  O        40.6544100706       33.7684838663       10.0582320373
  O        18.2595954958        1.3740648790        7.9983967437
  O        44.6227387822       35.1003268401        22.746584646538
  O        24.2068686108       -0.0001235045        9.3203512601
  O        22.7536815291        2.0574837069       10.5840816873
  O        21.6264392198        3.5976889816        9.3456225375
  O        27.5361297345       18.6803304044        21.404407964638
  O        26.7663117650       16.9308605780        22.641600527538
  O        30.6648487842       19.4060264702        7.9975699733
  O        33.5798414054       16.2664479974        21.642077479138
  O        34.2713104425       18.1776159692        22.655867589438
  O        29.5792393494       17.0637249269        22.558507577138
  O        33.6154196422       16.3431089206       10.4037197321
  O        34.3120699924       18.2319703222        9.3317522815
  O        31.7132626052       18.3121314337       10.0762718924
  O        30.3220582616       15.1576670683        8.0699969354
  O        28.5531097177       21.0300236532        22.815811851038
  O        28.5149567287       20.9517670891        9.4029342003
  O        27.4707456255       18.6792770607       10.6557414705
  O        26.6983359207       16.9305957528        9.4103510792
  O        13.1496911503       18.6927803519       10.5875241173
  O        13.9200339987       16.9163505855        9.4053651613
  O        50.5964771382       19.3502404286        8.0205674877
  O        47.6825264284       16.3272481916       10.4172365130
  O        46.9524228491       18.1763705672        9.3237031996
  O        11.0702222273       17.0152891337        9.4895898142
  O        47.6775732459       16.3352315581        21.643395165538
  O        46.9256547001       18.2354997458        22.653131634438
  O        49.5688646286       18.3177386157        21.972106060738
  O        10.3187633353       15.1001236048        7.9971143458
  O        52.6707861436       21.0278727681        9.2418254465
  O        12.1468398687       20.8912000366        22.663100008838
  O        13.1078468960       18.6137188047        21.315424752538
  O        13.9575873718       16.9873937449        22.654835402638
  O        30.0130856309       14.5026472781       10.7269651162
  O        28.0965335254       14.6558208505        9.4960429946
  O        32.0845647732       16.8666112662        8.0069128333
  O        30.9668234919       20.9492511146       10.4029353890
  O        32.9484799067       20.5975150522        9.3301426144
  O        29.5716961880       17.0804326977        9.5717336361
  O        30.8741763439       20.9470588500        21.643344133738
  O        32.8771062841       20.5902786613        22.649021577538
  O        31.6827237453       18.2505949601        21.910966842638
  O        28.2909196709       18.6751179087        8.0165198638
  O        32.4911538077       14.2159544995        9.3158201652
  O        32.3988618047       14.2167873494        22.811508114038
  O        29.8721457671       14.5035854509        21.400879548238
  O        28.0417454496       14.5864433233        22.739745435738
  O        17.8899106864        1.9653554196       10.6634131816
  O        18.9563735691        3.5266027628        9.4083858131
  O        39.1693098233       34.1393432568        7.9995579338
  O        43.2804502890       33.0594423796       10.3314058700
  O        42.0346980075       31.5065907608        9.2415320865
  O        20.3217020860        1.0376915451        9.4788369132
  O        43.2760730787       33.1826620010        21.564592166138
  O        42.0051710955       31.5842260909        22.572762632738
  O        40.5788716045       33.7751555995        21.925756496638
  O        22.3687287176        1.3854047765        7.9973521626
  O        36.6742736502       35.0997193062        9.2358112761
  O        16.4460378855        0.0648726775        22.658004648038
  O        17.9365333773        2.0433273098        21.316509998838
  O        18.9191179833        3.5930829765        22.655951779638
  O        29.8703993366       18.9112061221        19.975981638738
  O        29.9474033857       18.9056055961       11.9745773701
  O        31.1796067139       16.3414405932        19.989382973838
  O        31.3418325003       16.3479699944       12.0719428560
  O        32.1953589880       17.0731753891        17.329498665238
  O        27.9189578698       16.9987408395        18.326995346638
  O        30.1513700057       15.9004060380       14.3283663715
  O        32.8611525991       16.1987954250       14.4816452526
  O        30.5875796608       19.4184699597        17.238677354738
  O        28.8478067447       18.3137314989       14.2422527235
  O        39.4555389499       35.2438627303        19.991944537838
  O        19.2008707813        0.0037601643       11.9878435751
  O        41.9700666216       35.1727642085        20.076522183338
  O        21.7009182331       -0.0689048939       11.8981153399
  O        51.3651742937       18.6142771093        19.995202462938
  O        10.7512650029       18.7471894084       11.9049587839
  O        50.0794804874       16.4127605359        20.081491546038
  O         9.5245152133       16.4831224536       11.9911573869
 Zr         9.2979244332       16.0525670818        22.172302682938
 Zr        49.8372797093       16.0066945355        9.7463441833
 Zr        22.0726133801        0.0313623656        22.175931143338
 Zr        42.4638365738       35.1527280760        9.7918907071
 Zr        29.6096111916       19.0652047453        22.189643979738
 Zr        29.6000620194       19.1829965945        9.8030987616
 Zr        11.0391566276       19.0516061511        9.8279529279
 Zr        11.0447900605       19.1545246617        22.240649831438
 Zr        31.3771006935       16.1182323923        9.8083939749
 Zr        31.3766925497       16.0116803174        22.171409721838
 Zr        18.6074146341        0.0008544683        9.7752208823
 Zr        18.5063023977       -0.0077920033        22.207066847238
 Zr        12.3035805080       16.3235873428        23.980151149038
 Zr        48.6175675463       18.8331625212        8.0098772366
 Zr        20.3158044554        2.4752816100        23.980543166338
 Zr        40.6417355773       32.6880568407        23.967844500238
 Zr        28.3476732590       16.3470786861        8.0746644910
 Zr        32.6306053740       18.8382955674        7.9975291058
  H        32.4974849456       16.3107139817       13.5568592847
  H        28.3871673791       17.3510949525        17.543268961538
