     566
 i =       33, E =     -4712.2927889864
  C        11.8585282655       14.0534982720        21.731399258838
  C        12.4559901082       12.8904707355        21.013056952738
  C        11.7044148046       12.1719348515        20.071026104238
  C        12.2807102763       11.1096894466        19.378653128638
  C        13.6211105057       10.7394855827        19.606724045738
  C        14.3541375666       11.4426344150        20.580608590938
  C        13.7813070461       12.5076247532        21.272145594638
  C        14.2606102286        9.6488076544        18.833328318038
  C        14.2559828486        9.6567190401        17.411620387438
  C        13.7429301620       10.7588722912        16.657677258238
  C        49.1264603412       21.2333506096        21.869535910938
  C        48.5495797773       22.4011499622        21.142446178538
  C        49.2997100716       23.0686814693        20.161659485438
  C        48.7327246875       24.1077254798        19.428398070338
  C        47.4020627396       24.5090956404        19.656792016838
  C        46.6709689600       23.8599702969        20.670037899338
  C        47.2334720434       22.8151365758        21.399456447238
  C        46.7718915719       25.5868089509        18.859496527438
  C        46.7610878845       25.5572975477        17.437735113138
  C        47.2610596743       24.4422118590        16.694259521838
  C        14.8598220256        8.5703109260        16.698371438138
  C        14.8912645662        8.5967780466        19.509977784738
  C        49.1129053648       21.2034495827       10.1453538577
  C        48.5274796845       22.3647356472       10.8724821323
  C        49.2667691246       23.0256289811       11.8652417695
  C        48.6904046616       24.0601600553       12.5966831735
  C        47.3598880411       24.4566921723       12.3586097756
  C        46.6393838069       23.8115862916       11.3352821769
  C        47.2129752500       22.7756917666       10.6035108972
  C        46.7214646230       25.5316733382       13.1496246247
  C        46.7333353304       25.5281083087       14.5713237331
  C        47.2488102011       24.4289161070       15.3277081297
  C        40.6170037684       17.0820060480       15.3088361656
  C        40.6267433215       17.1035447515       12.4986562038
  C        11.8827347919       14.0864509925       10.2854735050
  C        12.4718128931       12.9103448017       10.9895325120
  C        11.7143189399       12.1775704884       11.9159862564
  C        12.2807083207       11.0950191769       12.5844318183
  C        13.6193109568       10.7207484426       12.3522524512
  C        14.3571784602       11.4357627685       11.3909515580
  C        13.7919414007       12.5170265785       10.7182500043
  C        14.2528792925        9.6240267324       13.1227294129
  C        14.2518819082        9.6441747516       14.5445749797
  C        13.7422529443       10.7532492539       15.2916290435
  C        22.5076313400        3.2428352172        21.741502682438
  C        23.2146109325        4.3482996544        21.036276879538
  C        24.2092560656        4.0689247784        20.087866701738
  C        24.8299743285        5.1092223265        19.401863809538
  C        24.4704724959        6.4495263430        19.644943101038
  C        23.5029184747        6.7205550643        20.629215707038
  C        22.8778843416        5.6821213161        21.313781920338
  C        25.0735397930        7.5564320919        18.869819031038
  C        25.0521806214        7.5485713101        17.448611506738
  C        24.3538741272        6.5484171306        16.700159561438
  C        38.2978923664       31.9279612775        21.841563242538
  C        37.5558907580       30.8401664703        21.140217591038
  C        36.5902353055       31.1485965851        20.169412332338
  C        35.9586178278       30.1318314724        19.458449794038
  C        36.2771506074       28.7799466808        19.694458862638
  C        37.2122135520       28.4789975451        20.703005115738
  C        37.8477576451       29.4947506877        21.413630291438
  C        35.6648544156       27.6928743182        18.895670467338
  C        35.7023244542       27.7082620531        17.473854643938
  C        36.4152588373       28.7083794706        16.740046258938
  C        25.6786859399        8.6179829737        16.731442329738
  C        25.6662302725        8.6317441573        19.543132780138
  C        38.3297399460       31.9597999861       10.1606551386
  C        37.6123663310       30.8867663999       10.9096524610
  C        36.6782016722       31.1963253624       11.9105546150
  C        36.0671315690       30.1796685490       12.6427727701
  C        36.3746372345       28.8255893755       12.3996055952
  C        37.2897067771       28.5259939283       11.3712763600
  C        37.9024800188       29.5391919098       10.6398459420
  C        35.7584357864       27.7278011502       13.1821827413
  C        35.7500481543       27.7261460164       14.6050465068
  C        36.4364876966       28.7180754756       15.3736096843
  C        46.1353584635       26.6207653623       15.2814463655
  C        46.0873705349       26.5799353820       12.4735627465
  C        22.4607234021        3.2545401719       10.2551591753
  C        23.1562587441        4.3635417432       10.9746940375
  C        24.1626617855        4.0779134731       11.9106652434
  C        24.7913112731        5.1088524871       12.6042400924
  C        24.4325384245        6.4534483213       12.3837149540
  C        23.4497142438        6.7326021453       11.4157019770
  C        22.8166767780        5.7018806662       10.7223697450
  C        25.0611106311        7.5510469497       13.1588971065
  C        25.0468936654        7.5448947625       14.5810783498
  C        24.3491363385        6.5480007354       15.3336646705
  C        26.5660948938       17.8256340278        21.775390061038
  C        25.2642046171       17.8846125788        21.048460773038
  C        25.0123306060       18.8901349697        20.102686560438
  C        23.8033906514       18.9178964666        19.411651724938
  C        22.8134630739       17.9428141627        19.646168828638
  C        23.0602771804       16.9608109855        20.623376631438
  C        24.2706867591       16.9285521622        21.312420771038
  C        21.5471476000       17.9341002472        18.875483410738
  C        21.5557546668       17.9229457851        17.453758373838
  C        22.7657985497       17.8038868386        16.699743267238
  C        34.4109484140       17.2192231598        21.868352064938
  C        35.7123737497       17.1548713808        21.141116648638
  C        35.9163311662       16.1852378292        20.146901903238
  C        37.1035948562       16.1604877113        19.420943488238
  C        38.1185575224       17.1062389632        19.665563309238
  C        37.9183554533       18.0539973412        20.687552301538
  C        36.7296862687       18.0820795877        21.413836434238
  C        39.3729871732       17.1100355594        18.878298032338
  C        39.3654367297       17.1151393372        17.455846967738
  C        38.1569358508       17.2363565222        16.700005025738
  C        20.3128673695       17.9458775856        16.740200906738
  C        20.3209128871       17.9303988993        19.552928273338
  C        34.4344198729       17.2402252199       10.1833522639
  C        35.7336857387       17.1425868608       10.9104618635
  C        35.9410768622       16.1601478165       11.8902676567
  C        37.1318469401       16.1283197389       12.6122889274
  C        38.1455658548       17.0774017360       12.3748247115
  C        37.9440766382       18.0335152393       11.3615717597
  C        36.7525410863       18.0705623194       10.6430439117
  C        39.3965800606       17.0898084458       13.1666852315
  C        39.3776711485       17.1040059997       14.5883816777
  C        38.1627110488       17.2286433591       15.3333748175
  C        35.1091955657       26.6504261589       15.3061756714
  C        35.1762085902       26.6536071207       12.4962678695
  C        26.5731987218       17.8284970110       10.3280872541
  C        25.2584669442       17.8800613181       11.0328427826
  C        24.9931930262       18.8932916130       11.9663594932
  C        23.7747348910       18.9239234757       12.6387039937
  C        22.7926361404       17.9425805440       12.3982104074
  C        23.0518759227       16.9547350976       11.4312921618
  C        24.2714886177       16.9211134514       10.7586516474
  C        21.5267593309       17.9295195689       13.1661386351
  C        21.5447131842       17.9198316064       14.5871496327
  C        22.7600493949       17.8024683225       15.3336450672
  C        14.0459465896       17.8320907136       10.2841293728
  C        15.3529572123       17.8972771158       11.0013720441
  C        15.6116654170       18.9109803980       11.9367459074
  C        16.8224408838       18.9385045448       12.6252711842
  C        17.8061213310       17.9549612046       12.3994948861
  C        17.5533351790       16.9667291773       11.4298973100
  C        16.3420721852       16.9348998619       10.7426727316
  C        19.0722724491       17.9400355103       13.1707617729
  C        19.0635712632       17.9354155260       14.5925656913
  C        17.8522230500       17.8367262896       15.3470012494
  C        46.8014053005       17.2160517525       10.1569317902
  C        45.5073608185       17.1453267365       10.8966696985
  C        45.3007432152       16.1597951896       11.8746716949
  C        44.1162488616       16.1312574731       12.6063444801
  C        43.1066296572       17.0881723207       12.3835759843
  C        43.3098295224       18.0523787611       11.3774783230
  C        44.4951637102       18.0847061103       10.6463087111
  C        41.8531582678       17.0921529056       13.1739732693
  C        41.8620885147       17.0928391188       14.5964974957
  C        43.0726109533       17.1887158293       15.3527514905
  C        20.3067435384       17.9435466861       15.3061630713
  C        20.2984561804       17.9194026305       12.4935677790
  C        46.7837316658       17.2321663999        21.876157621438
  C        45.4819676526       17.1265431428        21.156523827738
  C        45.2645666741       16.1256849096        20.197056258638
  C        44.0772327651       16.0956021544        19.469346685838
  C        43.0763202063       17.0636106724        19.682566992638
  C        43.2849857574       18.0355517432        20.679247345338
  C        44.4732258177       18.0716644093        21.402621267838
  C        41.8282671503       17.0803677142        18.886746152838
  C        41.8494982874       17.0857461338        17.465109119138
  C        43.0666753731       17.1825264158        16.719662283738
  C        46.1531244210       26.6372016760        16.715986810238
  C        46.1618565572       26.6558629889        19.525637053438
  C        14.0397273421       17.8284265072        21.696250956338
  C        15.3538674271       17.8977875729        20.996231446238
  C        15.6236489042       18.9197753960        20.074244410038
  C        16.8478316513       18.9572082931        19.411787672038
  C        17.8265959635       17.9715734980        19.647300023638
  C        17.5624427852       16.9755374095        20.604420800438
  C        16.3404694331       16.9378620735        21.270718113038
  C        19.0929203966       17.9530419779        18.880170977238
  C        19.0745472749       17.9411583566        17.459147947638
  C        17.8576239219       17.8392015212        16.713095794338
  C        28.8119810204       14.0901142073       10.3947017527
  C        28.1994290425       12.9160117566       11.0803713213
  C        28.9264368529       12.1633057975       12.0143904529
  C        28.3254282999       11.0887683130       12.6652071818
  C        26.9847081368       10.7421327136       12.4029092161
  C        26.2794961695       11.4740457333       11.4312410665
  C        26.8774680657       12.5499544594       10.7807835685
  C        26.3139910160        9.6618766637       13.1612173629
  C        26.2964888284        9.6884623079       14.5816319353
  C        26.7996182667       10.8006749270       15.3284204614
  C        32.1809680585       21.2337079091       10.1429812646
  C        32.7770659949       22.3963568464       10.8680428770
  C        32.0220728261       23.0847924859       11.8305099009
  C        32.5891825132       24.1257284463       12.5596814199
  C        33.9282524230       24.5083253129       12.3489342710
  C        34.6668012251       23.8380271605       11.3552564694
  C        34.1016844980       22.7916217280       10.6275509064
  C        34.5508888011       25.5869717534       13.1522173127
  C        34.5237841882       25.5652293034       14.5744800268
  C        34.0029288913       24.4546901625       15.3112174052
  C        25.6811591039        8.6122060288       15.2975820004
  C        25.6792690923        8.6124549391       12.4848069573
  C        32.0697264244       21.2012656119        21.867779186838
  C        32.6393153781       22.3690919456        21.130956875038
  C        31.9036531324       23.0195410021        20.128341616838
  C        32.4749848127       24.0599257171        19.397471995938
  C        33.7965120697       24.4800594706        19.648514462338
  C        34.5128124116       23.8440767328        20.681047625238
  C        33.9465796486       22.8002810560        21.407756163738
  C        34.4372450946       25.5640997922        18.865961995338
  C        34.4642178797       25.5541366105        17.443274806838
  C        33.9729866854       24.4499190410        16.677788171638
  C        40.6102820201       17.0830975738        16.744021497738
  C        40.5985506591       17.1094022364        19.554527194238
  C        28.7317948427       14.0629260025        21.777051116338
  C        28.1144097839       12.9175044495        21.048367848138
  C        28.8517882878       12.2004273939        20.093560330138
  C        28.2646214716       11.1454115919        19.400907143938
  C        26.9248414029       10.7806925702        19.639669571738
  C        26.2045700164       11.4823866116        20.624001544538
  C        26.7900374291       12.5390447134        21.318289696338
  C        26.2810115596        9.6926448734        18.867304488538
  C        26.2797326971        9.7052155230        17.446029719238
  C        26.7888612083       10.8104051924        16.694077165038
  C        18.1351979597        3.1807130347       10.3172166050
  C        17.4056113951        4.2778697100       11.0157648792
  C        16.3901742686        3.9993236913       11.9435263821
  C        15.7422380862        5.0391926669       12.6070049600
  C        16.0936469599        6.3829907971       12.3670485335
  C        17.0826497236        6.6526858028       11.4029391903
  C        17.7319343231        5.6154571450       10.7379063199
  C        15.4692903389        7.4906571921       13.1300927669
  C        15.4847741387        7.4901109894       14.5518037059
  C        16.1864326718        6.4965763146       15.3049834937
  C        42.9457418574       31.8593665370       10.0728253244
  C        43.6460215848       30.7717051912       10.8167419615
  C        44.5916932857       31.0929835918       11.8027035732
  C        45.1972986155       30.0874093416       12.5503850281
  C        44.8706631074       28.7343724148       12.3356441393
  C        43.9446550536       28.4200743992       11.3225872886
  C        43.3359363115       29.4252427230       10.5745066612
  C        45.4882613253       27.6551020319       13.1388444681
  C        45.4926027240       27.6808604011       14.5605304515
  C        44.8055326033       28.6889250862       15.3071439564
  C        14.8559245634        8.5626898192       15.2641432655
  C        14.8738646533        8.5623318433       12.4514840039
  C        42.9463054731       31.9613895809        21.798731530038
  C        43.6914272678       30.8852922960        21.085248918738
  C        44.6562688746       31.1911885843        20.113174945738
  C        45.2777163548       30.1715889400        19.395428971238
  C        44.9536540915       28.8212924085        19.632836561638
  C        44.0198687107       28.5236377832        20.643334608638
  C        43.3916602964       29.5404113831        21.355540961438
  C        45.5626919782       27.7239183343        18.847570556538
  C        45.5331363574       27.7173417790        17.426276048838
  C        44.8268299767       28.7075825538        16.673327418638
  C        35.0816783519       26.6431587265        16.741768427738
  C        35.0498466553       26.6206589028        19.552361414838
  C        18.1483602011        3.2467814484        21.696364034438
  C        17.4296280989        4.3435880953        20.987065027138
  C        16.4145640787        4.0522591748        20.063366003438
  C        15.7661600670        5.0828660535        19.388006323238
  C        16.1205935129        6.4281381844        19.610866445838
  C        17.1117707375        6.7115667404        20.568322674038
  C        17.7595081369        5.6826868190        21.248069941838
  C        15.4901149556        7.5238400358        18.838414924838
  C        15.4960281913        7.5072086546        17.417278692938
  C        16.1927597878        6.5054825705        16.670586619538
  H        10.6724136000       12.4663875950        19.893767624538
  H        11.6944590577       10.5514762262        18.651877348438
  H        15.3910060387       11.1676476003        20.762672588538
  H        14.3505850375       13.0704731246        22.008016000338
  H        13.3760303982       11.6310628476        17.190956889638
  H        50.3225018519       22.7488197792        19.977103725038
  H        49.3192282503       24.6231410317        18.670939881238
  H        45.6413308270       24.1604221067        20.852921960838
  H        46.6623156730       22.2896639182        22.161287779338
  H        47.6294808416       23.5757827097        17.235941847738
  H        14.8714736626        8.5879650500        20.598282545238
  H        50.2868776607       22.7029192707       12.0600345091
  H        49.2687893093       24.5757422356       13.3601032128
  H        45.6098583788       24.1085448054       11.1464297597
  H        46.6520306333       22.2533370912        9.8321642298
  H        47.6074923723       23.5517531702       14.7968181915
  H        40.6300426994       17.0711079724       11.4107588106
  H        48.6869587878       14.0950632064        23.789775768038
  H        10.6810147067       12.4670763715       12.0936700422
  H        11.6889116489       10.5249660442       13.2973985696
  H        15.3924179942       11.1573953582       11.2046722267
  H        14.3641911002       13.0860190930        9.9893543365
  H        13.3754386319       11.6218515864       14.7529646270
  H        47.9299774159       14.2185495986        9.7106662849
  H        47.7798763833       14.3736962264        22.485018649838
  H        49.0817845777       18.5517150496       10.8669344731
  H        10.4155261663       14.1343660978        7.9988141746
  H        24.4735211408        3.0307295245        19.899590658838
  H        25.6025737325        4.8940897782        18.666889514438
  H        23.2186226945        7.7529846507        20.821656120238
  H        22.1087436988        5.8799898365        22.056277436738
  H        23.7904672139        5.7918820650        17.238599494538
  H        36.3594192856       32.1930581634        19.973639542738
  H        35.2107028327       30.3761776333        18.707275695538
  H        37.4662991894       27.4383908172        20.894041146038
  H        38.5949544714       29.2682767786        22.170635771038
  H        36.9774707378       29.4581104251        17.289038464238
  H        25.6966415191        8.6151149368        20.631062070838
  H        36.4498961616       32.2406070337       12.1116287151
  H        35.3362939172       30.4278435384       13.4093007550
  H        37.5417468925       27.4857729482       11.1757377485
  H        38.6292129864       29.3100743096        9.8641777977
  H        37.0157810547       29.4749429060       14.8525543207
  H        46.1085498626       26.5871872383       11.3855221530
  H        44.6680916861       35.1160690073        23.803835829838
  H        24.4420587970        3.0398651768       12.0760924754
  H        25.5749421889        4.8820576906       13.3240056255
  H        23.1622964502        7.7668259019       11.2375633000
  H        22.0415179648        5.9126734548        9.9892796620
  H        23.7816573372        5.7916191833       14.7993086773
  H        44.9532907026       34.3898320470        9.6948198207
  H        44.9015749320       34.2066861546        22.480468321638
  H        40.6656117093       33.2082733964       10.8529019075
  H        23.1500940427        1.9573861934        8.0045060991
  H        25.7737245683       19.6462299856        19.926208935338
  H        23.6095754801       19.7029187896        18.683875410038
  H        22.3048695506       16.2005558626        20.811245963638
  H        24.4756380865       16.1581091390        22.051925486538
  H        23.7038061510       17.6807376450        17.233465775038
  H        35.1253564840       15.4655431897        19.949859532138
  H        37.2594437135       15.4011288724        18.657845781038
  H        38.6932265570       18.7927005345        20.881936147238
  H        36.5597592753       18.8295270946        22.185365129138
  H        37.2188531048       17.3689225772        17.231456961438
  H        20.3228177679       17.9618522591        20.641008056738
  H        35.1520628530       15.4373148557       12.0840993083
  H        37.2893896778       15.3633375339       13.3694658104
  H        38.7188560973       18.7734818200       11.1718501837
  H        36.5780888557       18.8270536336        9.8817636891
  H        37.2289889135       17.3542531190       14.7927502605
  H        35.1628735599       26.6746185155       11.4081596506
  H        28.4929151992       21.0748081281        23.869979311038
  H        25.7536439120       19.6505238634       12.1436170858
  H        23.5672138752       19.7131575046       13.3581262822
  H        22.3004547921       16.1912378919       11.2405622558
  H        24.4885443866       16.1475259910       10.0259988111
  H        23.6936360026       17.6788618597       14.7930058283
  H        29.0264007087       21.7114293638        9.7271095718
  H        29.2204731264       21.6826880137        22.556037836638
  H        32.0832850913       18.5610758678       10.9206054331
  H        27.3667263036       19.0169689715        8.0812235885
  H        14.8529715165       19.6710287482       12.1092289617
  H        17.0209028493       19.7288388191       13.3460378003
  H        18.3042704852       16.2006586503       11.2478707742
  H        16.1326670853       16.1590806677       10.0101019621
  H        16.9121765886       17.7261269542       14.8144308296
  H        46.0859635281       15.4295178472       12.0555303437
  H        43.9588838293       15.3594568881       13.3566232889
  H        42.5392444099       18.7996379549       11.1994839093
  H        44.6665434985       18.8442795163        9.8870657527
  H        44.0134317359       17.2996186270       14.8212675474
  H        20.2970823262       17.9482238961       11.4054098118
  H        46.0415701497       15.3846742163        20.023518680338
  H        43.9123653837       15.3176014430        18.727088434738
  H        42.5182963206       18.7881973191        20.851056881138
  H        44.6535430207       18.8408250679        22.149634183138
  H        44.0031019636       17.2876971174        17.259898253638
  H        46.1984463825       26.6822657108        20.613093254038
  H        52.7410663909       21.0625773087        8.1945992728
  H        14.8647272410       19.6781913731        19.895452576138
  H        17.0597597557       19.7528518593        18.700808901138
  H        18.3113674319       16.2085014497        20.790384013138
  H        16.1188564646       16.1584607927        21.995685178938
  H        16.9215932824       17.7303962197        17.252744080238
  H        52.3219924531       21.6734633758        22.284613067838
  H        52.0131581504       21.7022513585        9.4954519648
  H        49.0669117136       18.6078347531        21.194248370538
  H        13.2470308196       19.0166104021        23.965798009938
  H        29.9608909685       12.4338131134       12.2141021785
  H        28.8891880298       10.5039834013       13.3889026385
  H        25.2435740581       11.2150830500       11.2222267022
  H        26.3308848142       13.1372468381       10.0471298458
  H        27.1679453691       11.6675847202       14.7882506741
  H        30.9926784447       22.7798361610       12.0017056999
  H        31.9969092746       24.6575140574       13.3011278749
  H        35.7034159768       24.1221780287       11.1858614632
  H        34.6784654364       22.2509741108        9.8805663661
  H        33.6521226919       23.5840513948       14.7644873585
  H        25.7122251314        8.5937879510       11.3968911307
  H        30.8884638320       22.6866690722        19.924311290038
  H        31.8965219307       24.5629131184        18.625605609538
  H        35.5357313210       24.1551701491        20.882774297738
  H        34.5084411273       22.2881587757        22.185219051838
  H        33.5992138750       23.5752470019        17.202661267138
  H        40.5942367386       17.0782761030        20.642440492138
  H        32.5073912944       14.1562533154        8.2402502538
  H        29.8879364481       12.4783096958        19.915289222838
  H        28.8422532196       10.5848076582        18.669157720438
  H        25.1680998091       11.2113320035        20.814201506838
  H        26.2318002542       13.0984629174        22.065248276238
  H        27.1471994239       11.6854137784        17.228635606238
  H        33.2969009449       14.2193645307        22.425992955838
  H        33.4052323357       14.4124047862        9.5931889681
  H        32.0240426967       18.5063824092        21.067220903238
  H        30.2087471992       14.1468375443        8.0818996367
  H        16.1184969305        2.9627530703       12.1301367508
  H        14.9529875318        4.8196398571       13.3228336851
  H        17.3645803340        7.6856400336       11.2095209738
  H        18.5136090023        5.8182114248       10.0097011863
  H        16.7529047443        5.7391707323       14.7714902231
  H        44.8281024836       32.1400444013       11.9768177867
  H        45.9372511019       30.3410789071       13.3062699108
  H        43.6817098737       27.3780417075       11.1526262931
  H        42.5991773156       29.1898979018        9.8099785730
  H        44.2300667837       29.4366112925       14.7688462479
  H        14.8498596729        8.5454030945       11.3632714040
  H        44.9000147834       32.2338525111        19.921909814938
  H        46.0247659397       30.4127483421        18.642315578738
  H        43.7625431374       27.4839443204        20.834615644338
  H        42.6448888175       29.3175842690        22.113710814538
  H        44.2682298155       29.4704041068        17.207908629238
  H        35.0033615722       26.6327514390        20.639708361338
  H        36.6050970731       35.1338888045        8.1805687692
  H        16.1436395734        3.0126546301        19.893532338538
  H        14.9739264827        4.8559484427        18.677840167438
  H        17.3950209451        7.7470720119        20.745398875638
  H        18.5421479696        5.8931538033        21.973077973138
  H        16.7641754241        5.7552326187        17.209028034038
  H        36.2786618655       34.4820808008        22.263285796238
  H        36.3804588902       34.2091017795        9.4997052137
  H        40.5787317002       33.2013328428        21.144298641038
  H        17.4705360174        1.9469229570        23.963788732038
  H        29.2566735283       19.4441007225       12.5325760947
  H        28.9041767233       19.1683435803        19.674906247638
  H        30.6237967124       15.4822166875        19.734283522138
  H        31.4357912147       15.6868789752       12.5857088106
  H        28.2007462120       17.9509010878       14.4160982845
  H        29.6368502415       15.5054827113       14.4395637432
  H        18.8524085667        0.8686809453       12.3349773521
  H        40.5280754314       35.2289347497        19.942036423138
  H        42.3227370289       34.4175655872        19.581027350638
  H        22.0874671323        0.6918529232       12.3515178120
  H        11.5967749644       18.7127551012       12.3824642848
  H        52.2645690611       18.4311039780        19.667402438338
  H        49.2546690097       16.4768354778        19.574334363138
  H        10.1503771083       15.7983051873       12.2926903180
  H        50.8496348930       17.6926261811        19.943900625838
  H        10.0459560997       17.3947035458       12.0519831440
  H        20.2134284552        0.0018384556       12.0421308654
  H        39.1834987462       36.1241801841        19.676092428638
 Ni        30.2712258333       17.5709383812        18.655620688838
 Ni        30.5229821541       16.4931980127        16.404200160838
 Ni        29.5453726435       18.4316193128        16.321871290038
 Ni        30.1817497502       17.4749764384       13.2431238941
  O        10.6498591827       14.3651640865        21.475581289638
  O        12.6130812590       14.6574362629        22.573669793238
  O        49.1476030947       16.8459952425        23.979572863338
  O        50.3500732966       20.9363327688        21.638114612138
  O        48.3484491304       20.5932720904        22.655801614138
  O        11.0508362984       17.0540728699        22.490414959538
  O        50.3207763023       20.8817390365       10.4068576741
  O        48.3466434850       20.5866801905        9.3270759867
  O        49.5432424735       18.2484568621       10.0683676480
  O        12.3587248431       18.6246483355        7.9997351645
  O        48.6931383745       14.1486502260        22.741053678138
  O         8.2098059817       14.2104342225        9.3225651592
  O        10.7352615124       14.5067481620       10.6643518272
  O        12.5717274240       14.5827223627        9.3285457300
  O        22.8440944583        2.0425779525        21.477213314538
  O        21.6040368971        3.5914432300        22.580465849038
  O        42.0578094266       34.1369035105        23.968842061738
  O        37.9813423916       33.1369625684        21.562361356438
  O        39.2172790814       31.5753007976        22.655516308038
  O        20.3082465574        1.0393256324        22.491576106938
  O        38.0240944982       33.1843590028       10.4158434340
  O        39.2181521812       31.5827264799        9.3276609776
  O        40.6520498221       33.7689084262       10.0602293990
  O        18.2555148782        1.3761631947        7.9968011952
  O        44.6222219418       35.1005120284        22.748569078438
  O        24.2053867392       -0.0000426535        9.3208276448
  O        22.7528295524        2.0572300374       10.5833350515
  O        21.6236989330        3.5952816690        9.3413147185
  O        27.4602970599       18.6949720927        21.479266357238
  O        26.6932190017       16.9148502518        22.658770136238
  O        30.6303326526       19.3486241907        8.0103979025
  O        33.5326398487       16.3380688926        21.573163029138
  O        34.2663107673       18.1664087922        22.720345461738
  O        29.5331335544       17.0073137962        22.566354523338
  O        33.5488930491       16.3389581265       10.4113540331
  O        34.2940831479       18.2375980297        9.3995500555
  O        31.6514840264       18.3147650554       10.0848136660
  O        30.2963225806       15.1136231442        8.0777800097
  O        28.5483659307       21.0268256696        22.821384877538
  O        28.5146535365       20.9502076543        9.4039213032
  O        27.4613199503       18.6794073306       10.6593862446
  O        26.6915571623       16.9273484515        9.4188286940
  O        13.1472606296       18.6936824866       10.5864445290
  O        13.9184208555       16.9160223483        9.4043193222
  O        50.5955384464       19.3502535399        8.0208334921
  O        47.6822986511       16.3271800740       10.4172955879
  O        46.9501360474       18.1755921350        9.3256008798
  O        11.0688814021       17.0159478413        9.4896863352
  O        47.6747034473       16.3359234087        21.642590595938
  O        46.9252936759       18.2359280983        22.653132139638
  O        49.5686099435       18.3177985576        21.972132192738
  O        10.3185200303       15.1002540697        7.9971157743
  O        52.6707012382       21.0279966343        9.2418241838
  O        12.1467744259       20.8913623509        22.663103769838
  O        13.1050060139       18.6142504126        21.315979189438
  O        13.9552876703       16.9864327547        22.655285529338
  O        29.9951797940       14.4436503746       10.7309200689
  O        28.0879360621       14.6508072615        9.4989076053
  O        32.0690211592       16.8551954302        8.0234439048
  O        30.9631670662       20.9477430358       10.4042486070
  O        32.9441097080       20.5972840073        9.3318741184
  O        29.5603100010       17.0680207919        9.5717446644
  O        30.8464610583       20.8865256430        21.649721058838
  O        32.8670187160       20.5814960640        22.652622740638
  O        31.6102040373       18.2429442350        21.905960508438
  O        28.2554286553       18.6260467612        8.0689782281
  O        32.4898675489       14.2145714379        9.3222865133
  O        32.4011932423       14.2230219054        22.803087215438
  O        29.9036208069       14.4339045142        21.413434539238
  O        28.0454732469       14.5790900839        22.727045367538
  O        17.8891261673        1.9664200615       10.6628392969
  O        18.9560615321        3.5270851177        9.4080946535
  O        39.1685040971       34.1385604792        7.9971457531
  O        43.2801752532       33.0588524322       10.3316468242
  O        42.0343292428       31.5064396887        9.2415912360
  O        20.3171481582        1.0360872858        9.4805227480
  O        43.2760654008       33.1824546499        21.564734966138
  O        42.0051835599       31.5841036467        22.572846489538
  O        40.5790571517       33.7749062850        21.925792630138
  O        22.3669988128        1.3841852985        7.9979970944
  O        36.6727452974       35.0996247884        9.2332906011
  O        16.4455369264        0.0641450104        22.658114300338
  O        17.9363542263        2.0431956596        21.316168879938
  O        18.9187868787        3.5931076547        22.655674716138
  O        29.7347185718       18.8334057780        20.058715063638
  O        29.8701379976       18.8947645303       12.0096323193
  O        31.0105388331       16.3393369378        19.990337047738
  O        31.2670324778       16.4903349728       12.0597112551
  O        30.4332760438       16.0557841555       14.5605992272
  O        29.0619838878       18.4025295141       14.5013148063
  O        39.4567508542       35.2436599670        19.991798759138
  O        19.1403783904        0.0040799278       11.9906351843
  O        41.9694529902       35.1724343479        20.076954798738
  O        21.6910559669       -0.0694723724       11.8957656213
  O        51.3646544407       18.6143407825        19.995101969538
  O        10.7509524433       18.7472012592       11.9050106664
  O        50.0791630015       16.4127486817        20.081548976338
  O         9.5244573272       16.4831089136       11.9912137443
 Zr         9.2960404224       16.0529591650        22.171996347838
 Zr        49.8356301445       16.0070263079        9.7467026909
 Zr        22.0730012513        0.0288816903        22.179145536238
 Zr        42.4605751829       35.1526965010        9.8008448689
 Zr        29.5614438006       19.0380066945        22.235776580038
 Zr        29.5734802544       19.1697487717        9.8361693354
 Zr        11.0371240096       19.0524165990        9.8277870587
 Zr        11.0428994477       19.1551898485        22.241219559438
 Zr        31.3321109937       16.1038312886        9.8488471907
 Zr        31.3500482826       16.0096911468        22.215918807238
 Zr        18.6005342303       -0.0025702614        9.7635078240
 Zr        18.5063234145       -0.0083425704        22.203197174638
 Zr        12.3005733501       16.3234312215        23.980380248038
 Zr        48.6151766341       18.8328310544        8.0103703374
 Zr        20.3139641476        2.4721501379        23.980527271938
 Zr        40.6424771959       32.6860209379        23.968013296038
 Zr        28.3217897548       16.3167958025        8.0852948564
 Zr        32.6096986847       18.8327118958        8.0242385196
  H        29.8209931754       16.3412192043        17.769856653538
  H        30.3156059663       18.7988807161        17.617541399438
