     576
 i =      659, E =     -4780.0705048005
  C        11.8587734395       14.0535784380        21.731324809238
  C        12.4562964783       12.8906882606        21.012964234738
  C        11.7044580646       12.1714307591        20.071672509538
  C        12.2808405596       11.1091980485        19.379371700638
  C        13.6215436868       10.7397190158        19.606847585138
  C        14.3549163327       11.4436857832        20.579859081938
  C        13.7820159146       12.5087011331        21.271300765038
  C        14.2610399338        9.6490034649        18.833476521138
  C        14.2563351602        9.6568809076        17.411779302738
  C        13.7431618389       10.7590227438        16.657907981738
  C        49.1269489945       21.2330965133        21.869462569438
  C        48.5501925019       22.4011123560        21.142364692538
  C        49.3002100950       23.0683991116        20.161356439338
  C        48.7332961689       24.1075835834        19.428182980338
  C        47.4027897776       24.5092709853        19.656867396338
  C        46.6718479280       23.8604217152        20.670397205938
  C        47.2342875356       22.8154857137        21.399714776438
  C        46.7725083532       25.5869682379        18.859614759938
  C        46.7613562334       25.5573153267        17.437853050138
  C        47.2612997930       24.4422294668        16.694351224738
  C        14.8602626196        8.5705386404        16.698517093838
  C        14.8918608028        8.5970934767        19.510133642138
  C        49.1132963981       21.2034015936       10.1453294404
  C        48.5279121148       22.3648286201       10.8725294880
  C        49.2671660476       23.0255607394       11.8653987322
  C        48.6908494640       24.0601148906       12.5968968558
  C        47.3604309787       24.4568592371       12.3586928392
  C        46.6400083539       23.8119870763       11.3351587822
  C        47.2135570957       22.7760815445       10.6033624802
  C        46.7219602142       25.5318330887       13.1497169039
  C        46.7335622839       25.5281419290       14.5714249114
  C        47.2490217439       24.4289317673       15.3277980637
  C        40.6215972114       17.1436390858       15.3096165497
  C        40.6324270193       17.1445529978       12.4996013270
  C        11.8831026561       14.0867302433       10.2856578241
  C        12.4725767297       12.9111235269       10.9901002927
  C        11.7149116114       12.1774673275       11.9157278961
  C        12.2815411001       11.0949877520       12.5840768072
  C        13.6205459454       10.7216989741       12.3526270576
  C        14.3587306659       11.4377594361       11.3923681047
  C        13.7932464890       12.5189541801       10.7197498248
  C        14.2540832985        9.6248235699       13.1229466844
  C        14.2526538560        9.6446513427       14.5447853580
  C        13.7426983428       10.7535557580       15.2918652128
  C        22.5115663039        3.2448397861        21.741864857938
  C        23.2245624079        4.3501072586        21.040262164038
  C        24.2198693089        4.0700191308        20.092238986038
  C        24.8460363143        5.1093713708        19.408951966438
  C        24.4928857919        6.4514679491        19.653222978338
  C        23.5253933903        6.7230505111        20.637909421138
  C        22.8945541979        5.6855265490        21.319587053638
  C        25.0995882880        7.5582501765        18.878133185338
  C        25.0742540344        7.5519816421        17.456400757038
  C        24.3742161607        6.5529366233        16.707900719538
  C        38.3039007546       31.9296685273        21.838410167238
  C        37.5775642529       30.8388380374        21.127360355138
  C        36.6206005552       31.1402619929        20.146481696538
  C        36.0076453289       30.1180927725        19.427128263138
  C        36.3368951420       28.7698614545        19.667931234938
  C        37.2642989553       28.4758868407        20.685070733738
  C        37.8815960910       29.4967366458        21.402838631638
  C        35.7375889727       27.6763455819        18.871125568638
  C        35.7701447881       27.6899104413        17.449927472538
  C        36.4770045381       28.6914475756        16.712395761938
  C        25.6985780621        8.6223302670        16.738207742938
  C        25.6974947415        8.6319167327        19.550422929938
  C        38.3292027351       31.9623395812       10.1557667987
  C        37.6087809837       30.8877504876       10.8968880578
  C        36.6814918848       31.1940220240       11.9044262760
  C        36.0740809057       30.1735299112       12.6334399944
  C        36.3799208563       28.8218798341       12.3778152069
  C        37.2843035574       28.5255251662       11.3398664071
  C        37.8939230171       29.5424902421       10.6123617042
  C        35.7753734796       27.7209906724       13.1618134324
  C        35.7896530042       27.7126927242       14.5835872287
  C        36.4859695821       28.7025557991       15.3459111063
  C        46.1355235696       26.6207615730       15.2815700549
  C        46.0880561434       26.5802300901       12.4736748095
  C        22.4634153156        3.2566845449       10.2574503831
  C        23.1621760948        4.3652472760       10.9776189919
  C        24.1667686271        4.0787847984       11.9159092678
  C        24.7986701688        5.1084468545       12.6095923597
  C        24.4468108728        6.4551889318       12.3883180488
  C        23.4656866148        6.7348791380       11.4180771633
  C        22.8291996082        5.7054961061       10.7247739597
  C        25.0784103712        7.5532178184       13.1636801599
  C        25.0644865255        7.5486617676       14.5867294018
  C        24.3678055306        6.5523023742       15.3411251936
  C        26.6238194019       17.8623080905        21.772647173138
  C        25.3165074454       17.9052920602        21.048030343438
  C        25.0602480400       18.8945623318        20.085615812838
  C        23.8471773416       18.9133111249        19.399786651938
  C        22.8537076991       17.9456933343        19.653702791438
  C        23.1068627948       16.9785108170        20.644822719438
  C        24.3218191523       16.9543741704        21.328261716638
  C        21.5801594781       17.9294195493        18.889734549838
  C        21.5795957754       17.9036211016        17.467124691738
  C        22.7846797239       17.7751502389        16.706562005838
  C        34.4386423901       17.1959164484        21.911253567638
  C        35.7290522860       17.1558367303        21.161288384438
  C        35.9313559486       16.2003644882        20.153175600138
  C        37.1112390299       16.1956806507        19.414287984038
  C        38.1221881605       17.1443527622        19.664244238438
  C        37.9218811224       18.0808579097        20.696315505238
  C        36.7386384865       18.0918799556        21.431495474338
  C        39.3763021359       17.1579561678        18.877172925738
  C        39.3695543622       17.1747841718        17.455394289438
  C        38.1618291007       17.3027868164        16.699629331938
  C        20.3327057984       17.9224240189        16.758817005938
  C        20.3551005906       17.9351861259        19.572032218438
  C        34.4248674840       17.2148921074       10.2198891479
  C        35.7333507036       17.1363135430       10.9298411281
  C        35.9485985530       16.1740206817       11.9277072910
  C        37.1436084809       16.1600586691       12.6417245569
  C        38.1513182490       17.1087675379       12.3790864844
  C        37.9424930905       18.0430786559       11.3472175275
  C        36.7467751962       18.0612528203       10.6347208785
  C        39.4026948860       17.1385468914       13.1678061613
  C        39.3828848083       17.1655203915       14.5890252134
  C        38.1677477633       17.2965623975       15.3330572759
  C        35.1598086082       26.6335000766       15.2878198929
  C        35.1834048018       26.6513180954       12.4789362555
  C        26.5687000501       17.8267111531       10.3234345475
  C        25.2546785489       17.8707253931       11.0297235683
  C        24.9966022102       18.8658135009       11.9845777119
  C        23.7790081401       18.8899267561       12.6584837181
  C        22.7911558513       17.9177907297       12.4029758462
  C        23.0442829064       16.9473285614       11.4165687879
  C        24.2620966507       16.9218256944       10.7397711632
  C        21.5283957673       17.8970860430       13.1768635189
  C        21.5530500265       17.8850393179       14.5985217460
  C        22.7713644669       17.7658309718       15.3402728224
  C        14.0467805730       17.8284709532       10.2894511271
  C        15.3506888417       17.8843438626       11.0154564853
  C        15.6071488185       18.8855016074       11.9653864631
  C        16.8159145905       18.9048146467       12.6587596243
  C        17.8028391020       17.9258548849       12.4246363333
  C        17.5510756474       16.9491145512       11.4425339369
  C        16.3418224028       16.9251026386       10.7507347037
  C        19.0720883066       17.9071170493       13.1934823847
  C        19.0715315749       17.9028980715       14.6160263855
  C        17.8648295675       17.8052316374       15.3778123184
  C        46.8030920305       17.2179882897       10.1573170840
  C        45.5098571587       17.1548442436       10.8985826524
  C        45.3017639182       16.1798526400       11.8864401438
  C        44.1176614749       16.1626722926       12.6191155779
  C        43.1113008288       17.1204458023       12.3860896654
  C        43.3158228053       18.0734608651       11.3700013552
  C        44.5007535333       18.0947814359       10.6385932063
  C        41.8582277955       17.1367587824       13.1756971091
  C        41.8667881009       17.1483115735       14.5978477629
  C        43.0772486649       17.2454978425       15.3540364288
  C        20.3186813235       17.9120127363       15.3238864011
  C        20.2959675966       17.8878884090       12.5107922785
  C        46.7855822995       17.2336362755        21.875802293138
  C        45.4837857220       17.1351014652        21.155221977338
  C        45.2636461556       16.1435794411        20.187100036038
  C        44.0761161430       16.1243507160        19.459227169638
  C        43.0786784412       17.0936696983        19.681979347538
  C        43.2898336223       18.0556263191        20.687459491238
  C        44.4783051391       18.0813040390        21.410279493338
  C        41.8311114835       17.1224761242        18.886524329138
  C        41.8531609899       17.1396272756        17.465319786138
  C        43.0708195719       17.2386336283        16.720897804438
  C        46.1533064252       26.6371880563        16.716121916538
  C        46.1626491624       26.6561298036        19.525759462438
  C        14.0462696861       17.8318835019        21.698554428838
  C        15.3677603325       17.9061569427        21.008962938238
  C        15.6418403177       18.9202133565        20.078972162438
  C        16.8713307801       18.9567560743        19.424872666738
  C        17.8549184609       17.9784427520        19.674617897738
  C        17.5878491326       16.9938316726        20.643304585338
  C        16.3603963094       16.9566661624        21.300887624738
  C        19.1222701909       17.9516406204        18.905482354738
  C        19.0977509780       17.9246525362        17.483989243238
  C        17.8776592042       17.8149955610        16.743807602938
  C        28.7943251412       14.1192953843       10.4011062471
  C        28.1975663868       12.9393830742       11.0895470720
  C        28.9225146119       12.2037463955       12.0387834157
  C        28.3294586056       11.1213962190       12.6849782234
  C        26.9974983301       10.7513456004       12.4076760483
  C        26.2956164505       11.4676361504       11.4213648943
  C        26.8860852754       12.5486378134       10.7727152209
  C        26.3301173753        9.6673917196       13.1655769254
  C        26.3097609987        9.6953714044       14.5866391964
  C        26.8064572087       10.8102495973       15.3340941454
  C        32.1808688521       21.2379687950       10.1420699102
  C        32.7778260606       22.4047073349       10.8585954692
  C        32.0316595848       23.0811717181       11.8360284619
  C        32.6045294212       24.1186971019       12.5652898981
  C        33.9390165516       24.5071500152       12.3380541937
  C        34.6672805629       23.8496970301       11.3287459459
  C        34.0967780513       22.8068862063       10.6011625634
  C        34.5702894336       25.5807806241       13.1387627269
  C        34.5653071693       25.5510363895       14.5603253224
  C        34.0548996704       24.4369865301       15.2990128582
  C        25.6980642346        8.6171053573       15.3033941687
  C        25.6976276346        8.6150047742       12.4898699453
  C        32.1071764593       21.2267439002        21.871369156738
  C        32.6999026578       22.3770309267        21.126346407438
  C        31.9644806481       23.0468762281        20.136224496338
  C        32.5486253598       24.0732905795        19.397521045638
  C        33.8818218453       24.4621859052        19.633154268338
  C        34.6001031099       23.8074945141        20.651976128738
  C        34.0210916925       22.7741398168        21.384123789138
  C        34.5240663690       25.5421641640        18.848803860838
  C        34.5401264872       25.5320606886        17.427148817638
  C        34.0414370341       24.4286205044        16.665627177938
  C        40.6143694471       17.1437675382        16.744188154938
  C        40.6013448307       17.1485453832        19.554209148038
  C        28.7462614910       14.0685850245        21.809091412338
  C        28.1351520487       12.9222104239        21.070537615738
  C        28.8689447609       12.2262770284        20.097820774138
  C        28.2863754517       11.1708496988        19.399671234738
  C        26.9537647835       10.7847484255        19.648651469438
  C        26.2369460038       11.4686913551        20.648325255238
  C        26.8179017914       12.5246234135        21.348173586438
  C        26.3102555500        9.6953729613        18.874899740138
  C        26.3003465970        9.7097821930        17.452998157238
  C        26.8002342943       10.8182717616        16.699887728938
  C        18.1354664059        3.1811442958       10.3172063166
  C        17.4061843392        4.2783460488       11.0157306997
  C        16.3904873120        4.0000157118       11.9433098370
  C        15.7428062102        5.0400125845       12.6068008242
  C        16.0947261237        6.3837493927       12.3671156621
  C        17.0840494124        6.6532374514       11.4032685609
  C        17.7331082203        5.6158844786       10.7382057005
  C        15.4704315841        7.4914398309       13.1301900892
  C        15.4855466340        7.4905988329       14.5519080452
  C        16.1870369020        6.4969446270       15.3050902015
  C        42.9460346282       31.8595565032       10.0728650537
  C        43.6464195789       30.7719068432       10.8168229000
  C        44.5917383464       31.0932522246       11.8030912331
  C        45.1974301762       30.0877090951       12.5507751560
  C        44.8712095740       28.7346156841       12.3357679798
  C        43.9456511288       28.4202714550       11.3223055257
  C        43.3368470704       29.4253960021       10.5742409098
  C        45.4887517529       27.6553013150       13.1389585248
  C        45.4928324358       27.6808959702       14.5606497744
  C        44.8057226392       28.6889150580       15.3072912988
  C        14.8565692067        8.5630681504       15.2642967248
  C        14.8753253889        8.5633373451       12.4516260795
  C        42.9465663971       31.9616659996        21.798789362638
  C        43.6918345540       30.8855581838        21.085326764738
  C        44.6561969622       31.1914630981        20.112791908138
  C        45.2777554711       30.1718640669        19.395110984338
  C        44.9542693811       28.8215142655        19.632993101438
  C        44.0211152099       28.5238707227        20.644093425638
  C        43.3928179758       29.5406372844        21.356234090038
  C        45.5632384191       27.7240900674        18.847733061438
  C        45.5333894332       27.7173635458        17.426435046238
  C        44.8270088741       28.7075513373        16.673476596238
  C        35.1485180975       26.6228659628        16.722456313738
  C        35.1336709048       26.6008860344        19.532243278538
  C        18.1487009390        3.2470922274        21.696372378238
  C        17.4301239202        4.3438692751        20.987142824538
  C        16.4148358537        4.0525803350        20.063642009438
  C        15.7664986192        5.0832115292        19.388304119838
  C        16.1211838187        6.4284601908        19.610973737238
  C        17.1126451320        6.7118419128        20.568152080238
  C        17.7603630177        5.6829462738        21.247894877238
  C        15.4906286855        7.5241254535        18.838540445838
  C        15.4964512595        7.5074251394        17.417408032738
  C        16.1932071793        6.5057279673        16.670696757938
  H        10.6722178433       12.4653194169        19.894909214838
  H        11.6944690004       10.5504424022        18.653110983238
  H        15.3921094232       11.1694678565        20.761236069538
  H        14.3516666834       13.0723026332        22.006301567738
  H        13.3761682735       11.6311333754        17.191256251138
  H        50.3229068821       22.7483229197        19.976595668638
  H        49.3198114910       24.6228476389        18.670625331338
  H        45.6423944400       24.1612833544        20.853631851938
  H        46.6633420090       22.2902543205        22.161863765738
  H        47.6299435914       23.5759004523        17.236043466938
  H        14.8723289689        8.5884414537        20.598443413238
  H        50.2872313670       22.7027227273       12.0602521626
  H        49.2692978212       24.5755813912       13.3603534172
  H        45.6106162046       24.1092688143       11.1460958681
  H        46.6527590293       22.2538990475        9.8317968534
  H        47.6079066576       23.5518640910       14.7968837792
  H        40.6360278503       17.0999811901       11.4121556378
  H        48.6869853171       14.0951730577        23.789761543938
  H        10.6812803328       12.4661763633       12.0927849168
  H        11.6896499265       10.5242056601       13.2963802001
  H        15.3943569260       11.1603315877       11.2068359761
  H        14.3657806835       13.0887627334        9.9917145692
  H        13.3759585074       11.6222055699       14.7532257252
  H        47.9301906032       14.2186660161        9.7110692881
  H        47.7799623504       14.3736475365        22.484936986338
  H        49.0835198127       18.5522127631       10.8672725658
  H        10.4161072540       14.1343422875        7.9988506677
  H        24.4807944727        3.0314376968        19.901323922938
  H        25.6183296991        4.8914483103        18.674447850638
  H        23.2450350454        7.7560525407        20.833184364138
  H        22.1256438191        5.8864200341        22.061594833938
  H        23.8112547931        5.7961521105        17.246443261938
  H        36.3822344300       32.1829259059        19.950019761438
  H        35.2650671783       30.3548185502        18.668305635038
  H        37.5259416898       27.4374583664        20.877526912938
  H        38.6235828717       29.2783701158        22.167171353338
  H        37.0431904854       29.4405104572        17.258286880638
  H        25.7322349291        8.6132619608        20.638223436538
  H        36.4580176160       32.2377004884       12.1138066085
  H        35.3497450515       30.4160489997       13.4078765682
  H        37.5318890305       27.4858808241       11.1359770318
  H        38.6152184283       29.3193096473        9.8300450151
  H        37.0600262044       29.4598428925       14.8197638733
  H        46.1096187470       26.5876952438       11.3856421399
  H        44.6683222722       35.1162172560        23.803716251138
  H        24.4431925924        3.0402802348       12.0836982046
  H        25.5804309152        4.8780173821       13.3302757379
  H        23.1816327495        7.7696221791       11.2373756392
  H        22.0560001172        5.9200408205        9.9906125985
  H        23.7995009483        5.7955763160       14.8080974993
  H        44.9539446751       34.3904982677        9.6952597520
  H        44.9018461932       34.2069006645        22.480361550238
  H        40.6662977530       33.2093701143       10.8532377012
  H        23.1505824157        1.9581500960        8.0049065829
  H        25.8240262317       19.6440500271        19.890965448338
  H        23.6542478114       19.6868034060        18.659474521938
  H        22.3523139698       16.2217465521        20.849746395738
  H        24.5276281112       16.1934985427        22.077526567038
  H        23.7259483088       17.6537801317        17.235047231938
  H        35.1474520340       15.4726182458        19.957513589738
  H        37.2664917192       15.4465005752        18.641001819038
  H        38.6936068444       18.8221119115        20.893656581538
  H        36.5678076399       18.8294412810        22.212312889638
  H        37.2246162345       17.4344634137        17.232629414638
  H        20.3622348740       17.9785596877        20.659779596338
  H        35.1620130542       15.4538884169       12.1408558363
  H        37.3091522372       15.4108008775       13.4127070708
  H        38.7141433996       18.7812161499       11.1384905401
  H        36.5642562552       18.8006540097        9.8584889032
  H        37.2345942421       17.4231065258       14.7916536725
  H        35.1524571383       26.6789093983       11.3913765915
  H        28.4991808054       21.0791640969        23.885752107738
  H        25.7632657866       19.6112283434       12.1828331571
  H        23.5786278539       19.6661359878       13.3938332428
  H        22.2900065214       16.1898477295       11.2134820492
  H        24.4733802481       16.1610867001        9.9920558845
  H        23.7024192583       17.6374898660       14.7963273633
  H        29.0008810137       21.7258843862        9.7442793840
  H        29.1895558404       21.7259164117        22.568727267738
  H        32.0915228096       18.5881789751       10.9832442876
  H        27.4015517248       19.0668089472        8.0778407554
  H        14.8488003635       19.6443054371       12.1450082495
  H        17.0108443524       19.6875863089       13.3886932736
  H        18.3024906908       16.1854623440       11.2523396820
  H        16.1363951886       16.1575439609       10.0083637045
  H        16.9219597542       17.6900871023       14.8510998612
  H        46.0852697996       15.4493558485       12.0739456035
  H        43.9580095142       15.3995060031       13.3776708053
  H        42.5470451551       18.8208112049       11.1848129775
  H        44.6749367649       18.8458727530        9.8716694214
  H        44.0181101487       17.3559306037       14.8224872442
  H        20.2895468184       17.9202981456       11.4227315659
  H        46.0383891698       15.4017150626        20.006990074338
  H        43.9084519955       15.3540978218        18.709560913538
  H        42.5254405753       18.8089559437        20.866275689638
  H        44.6619366065       18.8430604429        22.163964658538
  H        44.0068692293       17.3426892982        17.262015132838
  H        46.1997029443       26.6827432078        20.613197031938
  H        52.7413351035       21.0626891695        8.1947092687
  H        14.8814428150       19.6735614166        19.885203364538
  H        17.0825638412       19.7460394245        18.706591167238
  H        18.3384788531       16.2322327435        20.844395733438
  H        16.1393052197       16.1832236227        22.032380100138
  H        16.9443792006       17.7072537307        17.288277495538
  H        52.3229249999       21.6733753125        22.283847954738
  H        52.0135428500       21.7022919526        9.4956567141
  H        49.0681509961       18.6078232514        21.193576565838
  H        13.2478411255       19.0158716006        23.967219171238
  H        29.9485477702       12.4920179057       12.2563738733
  H        28.8936373910       10.5499505063       13.4188798945
  H        25.2665990453       11.1926931678       11.1990678236
  H        26.3408495330       13.1219706005       10.0270520329
  H        27.1678132164       11.6804297991       14.7945710615
  H        31.0068518180       22.7669874738       12.0191261993
  H        32.0209147448       24.6430490513       13.3188540389
  H        35.6999189144       24.1409996266       11.1476669894
  H        34.6644594945       22.2735200484        9.8421253858
  H        33.6956444534       23.5702193865       14.7517571476
  H        25.7321749235        8.5951504772       11.4019736384
  H        30.9353364419       22.7470441881        19.952886674738
  H        31.9714889986       24.5931806085        18.635856988838
  H        35.6317953355       24.0976613773        20.839972338438
  H        34.5807013263       22.2458810287        22.152602058638
  H        33.6718147273       23.5551989465        17.195195670338
  H        40.5965009810       17.1064723138        20.641731162338
  H        32.5060337209       14.1534613007        8.2645459608
  H        29.8968710250       12.5261883942        19.906979442538
  H        28.8635949899       10.6274029572        18.654705432238
  H        25.2056577657       11.1844377063        20.847339370038
  H        26.2605941065       13.0686579289        22.107084049538
  H        27.1562359926       11.6941617052        17.234408348438
  H        33.3087839328       14.2270935109        22.454660204938
  H        33.4040274436       14.3918182712        9.6140693051
  H        32.1352968319       18.5119050179        21.176181328638
  H        30.2007572337       14.1893830440        8.0858260420
  H        16.1183840751        2.9635296389       12.1297370497
  H        14.9533658489        4.8206665044       13.3224805437
  H        17.3665147852        7.6861001013       11.2101308472
  H        18.5151240331        5.8185777782       10.0103471232
  H        16.7536733772        5.7396517318       14.7716122641
  H        44.8278994483       32.1403431800       11.9773937188
  H        45.9371606866       30.3414962367       13.3068408210
  H        43.6832066022       27.3781707980       11.1520025288
  H        42.6004829012       29.1900348681        9.8093455252
  H        44.2304205064       29.4367250086       14.7689913999
  H        14.8517615855        8.5467465770       11.3633995107
  H        44.8995752020       32.2341470929        19.921140945738
  H        46.0245119279       30.4131079422        18.641729328538
  H        43.7645265674       27.4841122474        20.835995052138
  H        42.6466320423       29.3178467777        22.114986514638
  H        44.2685571966       29.4704824294        17.208054385938
  H        35.0905234695       26.6142078450        20.619680823338
  H        36.6051639144       35.1340774066        8.1806352815
  H        16.1436948679        3.0130146192        19.893965702738
  H        14.9741014887        4.8563895988        18.678294498338
  H        17.3962117155        7.7473034807        20.744984248238
  H        18.5433272823        5.8934648230        21.972541542338
  H        16.7646761230        5.7555040132        17.209117870738
  H        36.2785008309       34.4827187166        22.262741365738
  H        36.3807754971       34.2092837040        9.4996967153
  H        40.5809637986       33.2031804461        21.143085326338
  H        17.4709978905        1.9477432995        23.963995287438
  H        28.9535199101       19.4250690854       12.4545891078
  H        29.8928398160       19.7923977250        19.653027202738
  H        31.7914548182       15.6912234321        19.530143670838
  H        31.0226490080       15.6031128678       12.5422887648
  H        27.7993365125       17.7949233380       14.8698353073
  H        29.3337047265       15.4496801606       14.8601844104
  H        31.4719446853       19.7588217240        17.137969403538
  H        33.0157227752       17.3132244742        17.233616302338
  H        28.5587474897       18.2220955861        18.275152141938
  H        32.2816531656       18.1553401375       14.6312127157
  H        18.8533065365        0.8690561052       12.3351742713
  H        40.5279923655       35.2288866495        19.941704856538
  H        42.3248564128       34.4195160183        19.579831222838
  H        22.0876866294        0.6919991731       12.3518236633
  H        11.5969362903       18.7127084654       12.3824053949
  H        52.2651423686       18.4311267376        19.667269865838
  H        49.2545748004       16.4768669410        19.574535965838
  H        10.1501784551       15.7982522144       12.2927133579
  H        50.8502215051       17.6925920074        19.943920162438
  H        10.0460999617       17.3946442610       12.0519120625
  H        20.2145580588        0.0022631133       12.0420213437
  H        39.1837590965       36.1244672574        19.676282747838
 Ni        31.1156677281       17.8643456157        18.902513792538
 Ni        31.1559916066       16.4268420950        16.071487511738
 Ni        29.6765881096       18.7408926327       15.908943938538
 Ni        29.8868380308       17.5015871709       13.4045506657
  O        10.6499198988       14.3651417947        21.475617267038
  O        12.6131598226       14.6575089853        22.573689330738
  O        49.1478365950       16.8458050089        23.979543386138
  O        50.3502965923       20.9357533561        21.637772481438
  O        48.3485600228       20.5933344856        22.655709405138
  O        11.0517235532       17.0537419455        22.490523783838
  O        50.3210258015       20.8816864867       10.4068595940
  O        48.3467531808       20.5867491711        9.3271355668
  O        49.5437126031       18.2483964196       10.0682106649
  O        12.3591198144       18.6246246984        7.9997153001
  O        48.6931777895       14.1486736723        22.741050786138
  O         8.2098486605       14.2105263070        9.3226200544
  O        10.7353099563       14.5067281667       10.6643315990
  O        12.5717927633       14.5827961096        9.3284843408
  O        22.8445884315        2.0434616303        21.476800260738
  O        21.6057427552        3.5924771607        22.579313784038
  O        42.0583973838       34.1376367807        23.968808507338
  O        37.9818350941       33.1375350005        21.562156719138
  O        39.2185069120       31.5762909967        22.656806047838
  O        20.3085077647        1.0398689458        22.492043621538
  O        38.0246469348       33.1856682435       10.4152568583
  O        39.2195156421       31.5840304630        9.3260682532
  O        40.6523205783       33.7695284365       10.0602642045
  O        18.2555238840        1.3763419582        7.9968423763
  O        44.6222110219       35.1005897750        22.748552731938
  O        24.2054171379        0.0000267769        9.3208002009
  O        22.7532175215        2.0580658129       10.5841911193
  O        21.6251704782        3.5968074269        9.3440213379
  O        27.4991068370       18.7515912492        21.486028026938
  O        26.7657901081       16.9340569180        22.644554613038
  O        30.6610239127       19.4060652368        8.0645453173
  O        33.5891945213       16.2735746652        21.661573725938
  O        34.2718167468       18.1680286249        22.728594160138
  O        29.5738639550       17.0625645665        22.562795529038
  O        33.5406244946       16.3308056877       10.4965475464
  O        34.2672813260       18.1807255224        9.4048073523
  O        31.6456806772       18.3173689662       10.1646457549
  O        30.3164379636       15.1536329136        8.0939527962
  O        28.5530073961       21.0347179420        22.829664810638
  O        28.5135790409       20.9557244081        9.4057045495
  O        27.4544786977       18.6791894143       10.6578544935
  O        26.6942704039       16.9282146011        9.4125256566
  O        13.1487687886       18.6928465219       10.5875186889
  O        13.9193650405       16.9162816191        9.4050761486
  O        50.5962879130       19.3501782428        8.0204483437
  O        47.6817644738       16.3273542237       10.4176183289
  O        46.9513474574       18.1759985590        9.3245617967
  O        11.0697957214       17.0154662344        9.4895941496
  O        47.6747936491       16.3360556396        21.642027035138
  O        46.9269568544       18.2360259439        22.654148876538
  O        49.5687193479       18.3176731121        21.972106537138
  O        10.3186442362       15.1001794701        7.9971277465
  O        52.6707639169       21.0278454449        9.2418146970
  O        12.1468360986       20.8911663825        22.663068791738
  O        13.1084481883       18.6135566813        21.315366513838
  O        13.9572580943       16.9870889298        22.655201348638
  O        29.9662816191       14.5087722610       10.7475803160
  O        28.0825748682       14.6562221974        9.4899257118
  O        32.0758293122       16.8567425294        8.0911205083
  O        30.9671033601       20.9523864940       10.4091212083
  O        32.9489179334       20.5961216201        9.3379703403
  O        29.5639286639       17.0811764122        9.5788058902
  O        30.8745378109       20.9459557416        21.648715726338
  O        32.8777561349       20.5859692773        22.656144601438
  O        31.6842623437       18.2496565004        21.996251267538
  O        28.2908667129       18.6769287855        8.0765852998
  O        32.4873235440       14.2168676208        9.3351935692
  O        32.4057851515       14.2144426217        22.814291072338
  O        29.9197046687       14.4389777217        21.480889833838
  O        28.0393304183       14.5899887456        22.742766981838
  O        17.8892873407        1.9666880350       10.6627804714
  O        18.9563165613        3.5271519950        9.4079594788
  O        39.1686730429       34.1389173801        7.9972005000
  O        43.2802096230       33.0589733881       10.3317706167
  O        42.0345871619       31.5064300787        9.2416462523
  O        20.3177956853        1.0369573370        9.4800595201
  O        43.2760647238       33.1826397841        21.564670844438
  O        42.0052910154       31.5841072940        22.572738724238
  O        40.5790181297       33.7751342797        21.925722254838
  O        22.3674509103        1.3849154877        7.9980588478
  O        36.6728009823       35.0998200589        9.2332793501
  O        16.4456540727        0.0642846049        22.658083446538
  O        17.9365267607        2.0433887329        21.316209075938
  O        18.9191187797        3.5931294037        22.655781311238
  O        29.8638471730       18.9090227912        20.062652425238
  O        29.7339827175       18.9835051766       12.0687341494
  O        31.3407076595       16.3515815376        20.086423524938
  O        31.2518217894       16.4783133546       12.1698274067
  O        32.2280055465       16.8455461617        17.561534837338
  O        28.3864890990       17.8106138418        17.394132224738
  O        30.1552813588       15.8877390182       14.5850939574
  O        32.5352605624       17.2118367577       14.6619598871
  O        30.6738465027       19.2745240877        17.405879690038
  O        28.4751360532       18.3908713229       14.4980937505
  O        39.4568002090       35.2437626365        19.991751400638
  O        19.1412195537        0.0045357102       11.9905389806
  O        41.9694959638       35.1725857285        20.076963448538
  O        21.6912665220       -0.0693079987       11.8959711400
  O        51.3652133565       18.6142701153        19.995187271038
  O        10.7510772678       18.7471172174       11.9049367181
  O        50.0791226112       16.4127587033        20.081601491238
  O         9.5243108614       16.4831281052       11.9912078091
 Zr         9.2972970754       16.0527892354        22.172238132238
 Zr        49.8367320115       16.0067979365        9.7464378575
 Zr        22.0734234248        0.0304532158        22.178746640338
 Zr        42.4611556602       35.1539957688        9.8011902549
 Zr        29.6100537413       19.0813614822        22.267635037938
 Zr        29.5670038173       19.1828556231        9.8889920896
 Zr        11.0386328098       19.0518223242        9.8278445837
 Zr        11.0445872774       19.1546487606        22.240748141138
 Zr        31.3302675859       16.1186655747        9.9106058216
 Zr        31.3861259200       16.0021049705        22.271955951738
 Zr        18.6013622744       -0.0008121800        9.7632170095
 Zr        18.5067031130       -0.0070809782        22.203652147938
 Zr        12.3029513005       16.3236318069        23.980092435038
 Zr        48.6170293686       18.8330403572        8.0102674631
 Zr        20.3157769971        2.4743312117        23.980602983838
 Zr        40.6441196517       32.6876956319        23.968080119238
 Zr        28.3413502710       16.3457858723        8.0775513541
 Zr        32.6132687815       18.8303156673        8.0553515221
  H        32.2838638229       16.8801801364       13.7491416425
  H        28.8799031102       16.9584173214        17.439112883538
  H        30.5905210342       19.2973186320       14.920036169338
  H        30.2116750902       15.8155265198        16.989686344038
