     571
 i =      335, E =     -4761.6903992567
  C        11.8587827630       14.0535600514        21.731393891538
  C        12.4563237526       12.8906131930        21.013084897338
  C        11.7046117123       12.1716280266        20.071488927238
  C        12.2809994896       11.1094366863        19.379121113838
  C        13.6215886328       10.7396821258        19.606827264938
  C        14.3547946685       11.4433436907        20.580197489038
  C        13.7818939451       12.5083104569        21.271720023938
  C        14.2611288494        9.6490206010        18.833421507038
  C        14.2563704163        9.6569020842        17.411719167938
  C        13.7432556001       10.7590590305        16.657824454038
  C        49.1266638371       21.2332245371        21.869462518038
  C        48.5498632876       22.4011440041        21.142391829038
  C        49.2999380051       23.0685195622        20.161466776638
  C        48.7330047395       24.1076271747        19.428231211738
  C        47.4024348141       24.5091977381        19.656783894538
  C        46.6714298632       23.8602690169        20.670220581938
  C        47.2338781955       22.8153782253        21.399601669438
  C        46.7722583490       25.5869331653        18.859509718538
  C        46.7612878371       25.5573441768        17.437747798938
  C        47.2612019896       24.4422410851        16.694259508338
  C        14.8602662246        8.5705436128        16.698446796538
  C        14.8918429317        8.5970255103        19.510058724938
  C        49.1131661459       21.2033886240       10.1452825638
  C        48.5277929389       22.3647667992       10.8724574007
  C        49.2670527009       23.0254638217       11.8653575014
  C        48.6907797583       24.0600556042       12.5968109459
  C        47.3603707979       24.4568517312       12.3586024534
  C        46.6399201347       23.8119687929       11.3350914969
  C        47.2134250964       22.7760236062       10.6033173770
  C        46.7219926835       25.5318830526       13.1496110521
  C        46.7336299464       25.5282111316       14.5713179329
  C        47.2489949017       24.4289688308       15.3277065696
  C        40.6185408711       17.0971442845       15.2909845128
  C        40.6194325129       17.1291965952       12.4819970575
  C        11.8829907031       14.0865710586       10.2854847439
  C        12.4722963653       12.9107523307       10.9897411371
  C        11.7147262787       12.1775335810       11.9157898043
  C        12.2812801803       11.0950750269       12.5842388624
  C        13.6201033411       10.7213421518       12.3524506768
  C        14.3581390355       11.4369337461       11.3917150601
  C        13.7927451251       12.5181135642       10.7190027614
  C        14.2536722135        9.6245631203       13.1228618139
  C        14.2524631781        9.6445392858       14.5447037742
  C        13.7426567121       10.7535193604       15.2917778747
  C        22.5082565902        3.2436430016        21.740339475838
  C        23.2150103604        4.3488476212        21.033646784738
  C        24.2082055142        4.0691447581        20.083582353938
  C        24.8294198266        5.1089350294        19.396849458038
  C        24.4723328595        6.4499785396        19.640173947538
  C        23.5059097873        6.7211917146        20.625803769638
  C        22.8803635570        5.6833229313        21.311124881538
  C        25.0770642072        7.5574615834        18.865977076838
  C        25.0565259205        7.5520344081        17.444413395838
  C        24.3604848967        6.5522957306        16.693241142538
  C        38.3037181043       31.9280967883        21.835938510238
  C        37.5770791537       30.8391769971        21.120552745438
  C        36.6186793371       31.1448820757        20.141967013238
  C        36.0017063683       30.1265883257        19.420067870838
  C        36.3274743005       28.7762400153        19.654658731938
  C        37.2577673239       28.4780013763        20.668380383938
  C        37.8788511753       29.4950466217        21.389184926138
  C        35.7214887769       27.6854537678        18.856928637538
  C        35.7477701597       27.7003877148        17.435152149938
  C        36.4496806015       28.7035313861        16.695301448538
  C        25.6817043443        8.6238083172        16.729286105838
  C        25.6705764291        8.6314286207        19.541400360538
  C        38.3261982551       31.9623304345       10.1530773320
  C        37.5978866782       30.8890093137       10.8879346328
  C        36.6640326625       31.1977215882       11.8887596733
  C        36.0488491519       30.1790196027       12.6135108173
  C        36.3538940534       28.8265532869       12.3614210099
  C        37.2639416607       28.5276999285       11.3291177800
  C        37.8807458863       29.5429212457       10.6049698387
  C        35.7460436241       27.7278992244       13.1462900690
  C        35.7601773650       27.7223154767       14.5682420490
  C        36.4551750646       28.7144537069       15.3288260170
  C        46.1356920643       26.6208917532       15.2814475239
  C        46.0880808927       26.5802623513       12.4735510926
  C        22.4629920293        3.2564717995       10.2555561716
  C        23.1615580998        4.3668629639       10.9724963688
  C        24.1708607527        4.0837854733       11.9065021149
  C        24.8018024173        5.1160982822       12.5968744570
  C        24.4432522602        6.4611701899       12.3768544635
  C        23.4578044944        6.7376529650       11.4104158566
  C        22.8227514682        5.7056680881       10.7198868629
  C        25.0711813747        7.5601904646       13.1531668191
  C        25.0543635755        7.5529087972       14.5758055804
  C        24.3576283142        6.5538934638       15.3266512575
  C        26.6348443607       17.8306514506        21.733046783938
  C        25.3217526191       17.8871200699        21.022692075838
  C        25.0618392944       18.8833938285        20.068505192838
  C        23.8427888561       18.9125738108        19.394541659238
  C        22.8478669931       17.9467795524        19.649684809938
  C        23.1029590238       16.9753189252        20.636083930538
  C        24.3227046351       16.9428722890        21.310537864838
  C        21.5741120110       17.9353735946        18.886754335938
  C        21.5757114611       17.9149094455        17.464014871638
  C        22.7817686912       17.7872051703        16.705032377338
  C        34.4407384801       17.1850829777        21.868582417138
  C        35.7390573955       17.1134341678        21.137595302738
  C        35.9476649824       16.1353774065        20.153217183838
  C        37.1310954528       16.1177936312        19.419803509038
  C        38.1374393917       17.0750136519        19.653964174238
  C        37.9339366120       18.0292912814        20.668604642338
  C        36.7474319717       18.0539172944        21.397041311738
  C        39.3888362532       17.0889219023        18.862942504038
  C        39.3757796331       17.1075271728        17.441552104238
  C        38.1634239714       17.2312380227        16.692740196838
  C        20.3301346598       17.9370923215        16.753892860038
  C        20.3486796670       17.9386260215        19.567763648938
  C        34.4428974130       17.2493851547       10.1472588759
  C        35.7377888584       17.1666329645       10.8834150406
  C        35.9292797878       16.2046771994       11.8871725651
  C        37.1165027404       16.1752449584       12.6141168155
  C        38.1403854455       17.1095638724       12.3621688682
  C        37.9516122381       18.0488003209       11.3301737783
  C        36.7650628407       18.0811161895       10.6029889759
  C        39.3909881097       17.1187708790       13.1534080877
  C        39.3764399047       17.1245193793       14.5752578624
  C        38.1642704554       17.2402888270       15.3263163119
  C        35.1330307467       26.6426743307       15.2740253376
  C        35.1552213711       26.6565671544       12.4648039735
  C        26.5786224679       17.8291023925       10.3223221753
  C        25.2652781511       17.8696393066       11.0342170601
  C        25.0023068976       18.8739504345       11.9781714407
  C        23.7837472488       18.9011590382       12.6512650996
  C        22.7983520133       17.9243662570       12.4036836503
  C        23.0567605395       16.9437870116       11.4288299067
  C        24.2761233044       16.9143311060       10.7544162045
  C        21.5326266335       17.9092769240       13.1738995197
  C        21.5540782907       17.9004241295       14.5954298612
  C        22.7710111141       17.7805260489       15.3389044539
  C        14.0475692452       17.8299483410       10.2878505106
  C        15.3532696696       17.8896810829       11.0108477885
  C        15.6106008038       18.8951737288       11.9559275988
  C        16.8204062160       18.9183053860       12.6474099901
  C        17.8073953035       17.9387199152       12.4162774881
  C        17.5550969743       16.9579404156       11.4383650373
  C        16.3447839544       16.9302742180       10.7483748516
  C        19.0761091555       17.9219659612       13.1862110340
  C        19.0728004841       17.9202355254       14.6088535550
  C        17.8647527396       17.8244405439       15.3689845211
  C        46.8012018399       17.2147488852       10.1528148791
  C        45.5030939017       17.1436505705       10.8840987020
  C        45.2890472856       16.1578132746       11.8597084064
  C        44.1018843408       16.1347335275       12.5868507717
  C        43.0987060838       17.0975684277       12.3611212899
  C        43.3078014131       18.0598310300       11.3548206835
  C        44.4957417122       18.0866765128       10.6283354817
  C        41.8472848350       17.1104476309       13.1532234005
  C        41.8611244541       17.1101868539       14.5752030520
  C        43.0746738930       17.2057264325       15.3264360873
  C        20.3186079190       17.9287699660       15.3188928187
  C        20.3013548639       17.8999687274       12.5056258110
  C        46.7864380131       17.2333766514        21.872850872038
  C        45.4896459737       17.1293932412        21.144234453938
  C        45.2839311743       16.1366410119        20.173735575138
  C        44.1008546007       16.1058313003        19.439255203738
  C        43.0923499861       17.0644759884        19.658022353438
  C        43.2904222780       18.0294732412        20.663667803438
  C        44.4748413366       18.0669615179        21.393030201138
  C        41.8436710255       17.0765706279        18.863367952538
  C        41.8599297876       17.0908570761        17.441970766638
  C        43.0741057374       17.1958354440        16.693077293238
  C        46.1533596565       26.6372721790        16.715999337438
  C        46.1622904561       26.6560364408        19.525636971938
  C        14.0449649667       17.8315467780        21.697869057638
  C        15.3650767969       17.9059614648        21.005805120438
  C        15.6379554084       18.9231496562        20.078956868938
  C        16.8663513461       18.9614964192        19.423040186038
  C        17.8494726085       17.9816713152        19.667981272638
  C        17.5831577845       16.9929155208        20.632651890738
  C        16.3568987049       16.9541835723        21.292255242538
  C        19.1169871943       17.9585181033        18.899342949938
  C        19.0942641507       17.9378867868        17.477634577038
  C        17.8752092940       17.8322832886        16.735141314138
  C        28.7975409937       14.1231489206       10.3978851070
  C        28.1925249131       12.9498305771       11.0924994466
  C        28.9137420723       12.2151822892       12.0450078846
  C        28.3187246218       11.1324929504       12.6887971972
  C        26.9881927830       10.7616393668       12.4062563305
  C        26.2886846401       11.4790076277       11.4192047595
  C        26.8815428236       12.5601151922       10.7727592771
  C        26.3197084159        9.6759284532       13.1604380055
  C        26.2969658759        9.7009917454       14.5813271621
  C        26.7925298003       10.8145499660       15.3313260926
  C        32.1815679439       21.2421457209       10.1043889541
  C        32.7696856096       22.4034356626       10.8366202281
  C        32.0178446787       23.0748019455       11.8131413314
  C        32.5848856549       24.1121157690       12.5483262281
  C        33.9183696005       24.5073485228       12.3262080210
  C        34.6530718936       23.8526755227       11.3195773174
  C        34.0894577835       22.8090835181       10.5880786053
  C        34.5439352190       25.5856646566       13.1260963420
  C        34.5405471674       25.5579352740       14.5477158771
  C        34.0378083429       24.4415577942       15.2875420727
  C        25.6848775998        8.6209947242       15.2949064192
  C        25.6896523582        8.6239087878       12.4819541876
  C        32.1131139646       21.2008757033        21.826880765138
  C        32.6982003065       22.3615582351        21.093952553238
  C        31.9693197708       23.0103577543        20.085148968538
  C        32.5452223502       24.0506330586        19.359834175838
  C        33.8655428795       24.4686256148        19.620257998338
  C        34.5755663585       23.8332742729        20.657193420638
  C        34.0030957531       22.7909237934        21.381603411438
  C        34.5055037389       25.5507945849        18.837142977438
  C        34.5214653809       25.5397352404        17.414948445438
  C        34.0288024700       24.4329375065        16.654149176338
  C        40.6179282662       17.0878751389        16.725636930138
  C        40.6159972176       17.0915458200        19.535294216138
  C        28.7364378796       14.0690511513        21.777025204738
  C        28.1203366295       12.9199839793        21.051009094538
  C        28.8546472863       12.2084046144        20.089557177238
  C        28.2675117531       11.1525025416        19.397589571238
  C        26.9302048415       10.7814261743        19.642121389438
  C        26.2136936489       11.4773968836        20.633583018438
  C        26.7991980283       12.5343771416        21.327692644738
  C        26.2850072565        9.6944837932        18.868108105238
  C        26.2808382733        9.7105539583        17.446572081438
  C        26.7835590705       10.8199881899        16.696947487438
  C        18.1353147884        3.1809749294       10.3171816245
  C        17.4059205910        4.2781759157       11.0157131248
  C        16.3903295322        3.9997614217       11.9433625120
  C        15.7425435277        5.0397149971       12.6068401440
  C        16.0942915214        6.3834690943       12.3670576543
  C        17.0834849300        6.6530367874       11.4031028814
  C        17.7326268310        5.6157253024       10.7380561961
  C        15.4699789740        7.4911518349       13.1301231790
  C        15.4853216481        7.4904611900       14.5518372114
  C        16.1868429388        6.4968187562       15.3050058015
  C        42.9459014672       31.8595333195       10.0728427609
  C        43.6463072824       30.7719159666       10.8168026921
  C        44.5918044107       31.0932916111       11.8028941857
  C        45.1975667757       30.0877797737       12.5505535470
  C        44.8713149722       28.7346828196       12.3356041489
  C        43.9455521064       28.4202974930       11.3223429257
  C        43.3366822276       29.4254033655       10.5743030335
  C        45.4889026553       27.6554096221       13.1388201041
  C        45.4930053496       27.6810235945       14.5605160153
  C        44.8059680292       28.6891096749       15.3071334744
  C        14.8564266603        8.5629829603       15.2642234618
  C        14.8747637604        8.5629751087       12.4515523239
  C        42.9465067593       31.9615618087        21.798745493838
  C        43.6917377395       30.8854710505        21.085287727438
  C        44.6563567611       31.1913818328        20.113006034038
  C        45.2778476459       30.1717983756        19.395257309038
  C        44.9540607515       28.8214725908        19.632861902738
  C        44.0205667461       28.5238078577        20.643636146238
  C        43.3923337862       29.5405645697        21.355843643038
  C        45.5630747424       27.7240816919        18.847588332438
  C        45.5334389475       27.7174569001        17.426290066338
  C        44.8271737208       28.7077108335        16.673318495338
  C        35.1251328304       26.6324744527        16.709005788938
  C        35.1169270566       26.6104019048        19.518596581638
  C        18.1484963377        3.2468497459        21.696386513738
  C        17.4299471648        4.3436839159        20.987064555638
  C        16.4146853641        4.0524580640        20.063535604438
  C        15.7663939029        5.0831235845        19.388176272138
  C        16.1211035251        6.4283535362        19.610877002138
  C        17.1125610245        6.7116803816        20.568071580238
  C        17.7602059077        5.6827466343        21.247825644538
  C        15.4906344654        7.5240806941        18.838453072438
  C        15.4964323842        7.5074022875        17.417321961538
  C        16.1931230163        6.5056605134        16.670610645938
  H        10.6724561838       12.4657055368        19.894529942838
  H        11.6946846492       10.5508917893        18.652651971038
  H        15.3918602467       11.1688288265        20.761855091538
  H        14.3513885759       13.0716238920        22.007066388838
  H        13.3762915517       11.6311954095        17.191149540638
  H        50.3226691301       22.7485193116        19.976790634938
  H        49.3195166418       24.6229291840        18.670700363438
  H        45.6419042320       24.1609724784        20.853309395038
  H        46.6628151665       22.2900456251        22.161595187638
  H        47.6296586892       23.5758320704        17.235946189138
  H        14.8722359415        8.5883099224        20.598366695538
  H        50.2870932699       22.7025849607       12.0602412682
  H        49.2692066600       24.5755001678       13.3602961102
  H        45.6105140779       24.1092222008       11.1460575892
  H        46.6525563527       22.2538689335        9.8317834877
  H        47.6077434107       23.5518376346       14.7968074244
  H        40.6196021863       17.0975432492       11.3940972277
  H        48.6870498623       14.0950207841        23.789804301238
  H        10.6812355805       12.4665859573       12.0931197631
  H        11.6894481778       10.5246413560       13.2968728826
  H        15.3936023427       11.1590986325       11.2058727855
  H        14.3651469448       13.0875524012        9.9905733004
  H        13.3758669459       11.6221457481       14.7531310951
  H        47.9301715315       14.2187588150        9.7109392111
  H        47.7799795300       14.3735077218        22.485045437238
  H        49.0823155895       18.5516397440       10.8668781110
  H        10.4159090521       14.1343793927        7.9989220479
  H        24.4715565194        3.0308319781        19.894617123838
  H        25.6010282708        4.8925020109        18.661196371738
  H        23.2229444918        7.7538179892        20.819216930538
  H        22.1125627814        5.8825727050        22.054674517538
  H        23.7975791786        5.7938918476        17.229585212838
  H        36.3812685471       32.1885047330        19.949515208138
  H        35.2575164689       30.3685655564        18.664467041638
  H        37.5180849712       27.4384973040        20.856906746038
  H        38.6217100142       29.2713013222        22.151195762938
  H        37.0155667710       29.4541550244        17.239394206538
  H        25.7016109216        8.6119236895        20.629291816238
  H        36.4418670209       32.2419553990       12.0966403104
  H        35.3199856678       30.4235551120       13.3830491999
  H        37.5105920887       27.4873935229       11.1274910059
  H        38.6063837561       29.3175179111        9.8272999523
  H        37.0262113962       29.4730789027       14.8014178520
  H        46.1095316013       26.5876569536       11.3855157279
  H        44.6682630122       35.1161676220        23.803718987538
  H        24.4511885691        3.0462083061       12.0736244765
  H        25.5869545493        4.8892741618       13.3150101161
  H        23.1691681875        7.7713518937       11.2310478299
  H        22.0459465778        5.9166369054        9.9885363034
  H        23.7922166652        5.7970244336       14.7907930974
  H        44.9536882409       34.3902833712        9.6951594813
  H        44.9017561303       34.2068291978        22.480382897438
  H        40.6652637412       33.2085153732       10.8527269258
  H        23.1502405982        1.9579416706        8.0042284870
  H        25.8264582326       19.6307667290        19.869828902138
  H        23.6466517936       19.6915371320        18.660842917638
  H        22.3464528938       16.2211597838        20.843378100238
  H        24.5296781665       16.1792324853        22.056646363738
  H        23.7216029291       17.6627791449        17.234983711638
  H        35.1639928138       15.4041784842        19.969020131138
  H        37.2906115989       15.3559154367        18.659882938938
  H        38.7038321661       18.7755103812        20.853699484838
  H        36.5708633960       18.8078481087        22.160609946238
  H        37.2271093230       17.3512158475        17.230394147538
  H        20.3541247462       17.9770650566        20.655699093438
  H        35.1316084822       15.4952465945       12.0949372070
  H        37.2630717341       15.4220065714       13.3850109911
  H        38.7338147515       18.7782491963       11.1303504461
  H        36.6018574836       18.8225099049        9.8243878655
  H        37.2278311515       17.3674759702       14.7911202752
  H        35.1253247508       26.6822511922       11.3771537137
  H        28.5055436628       21.0787312065        23.858724126138
  H        25.7652458797       19.6269046968       12.1635342050
  H        23.5793498223       19.6850259735       13.3774346400
  H        22.3047963257       16.1822912732       11.2321467806
  H        24.4905447967       16.1465203684       10.0148699673
  H        23.7025641880       17.6516232912       14.7960412366
  H        29.0038449504       21.7248243203        9.7294969385
  H        29.1785159435       21.7302240559        22.539200679938
  H        32.0821628434       18.6087797767       10.8941183178
  H        27.3973011011       19.0632457258        8.0169121323
  H        14.8518558275       19.6540507204       12.1335687225
  H        17.0157659723       19.7042116673       13.3738571638
  H        18.3065493612       16.1937420180       11.2505159190
  H        16.1387343523       16.1595006430       10.0094890748
  H        16.9224555728       17.7114092143       14.8408099708
  H        46.0709362419       15.4246594082       12.0434161040
  H        43.9379217694       15.3644509247       13.3372503070
  H        42.5411438273       18.8105916582       11.1746891029
  H        44.6741962548       18.8453738889        9.8699303589
  H        44.0128936579       17.3200569887       14.7911534124
  H        20.2967781389       17.9289402417       11.4174488432
  H        46.0663112765       15.4017996379        19.998255593938
  H        43.9444340212       15.3332324591        18.689579434538
  H        42.5176534544       18.7750778829        20.838825804038
  H        44.6468745358       18.8304548507        22.147795999038
  H        44.0119827434       17.3023758299        17.230546664038
  H        46.1991088838       26.6825483613        20.613082705938
  H        52.7411681449       21.0626421118        8.1946803546
  H        14.8776289471       19.6776744738        19.889583402838
  H        17.0772364338       19.7536286744        18.707795747938
  H        18.3335356094       16.2299013332        20.829256937538
  H        16.1361780892       16.1781918332        22.021177461238
  H        16.9407636936       17.7252652637        17.277780947538
  H        52.3224755004       21.6732995287        22.284102145238
  H        52.0133105729       21.7021583912        9.4956572123
  H        49.0680245360       18.6079826595        21.193499208838
  H        13.2474618397       19.0163735409        23.966878164938
  H        29.9383156040       12.5049933577       12.2671400114
  H        28.8805800801       10.5610266041       13.4244489338
  H        25.2603054319       11.2041743121       11.1937707567
  H        26.3390146625       13.1333381913       10.0250988500
  H        27.1554136054       11.6856898907       14.7944054824
  H        30.9923727294       22.7592922246       11.9902575079
  H        31.9965256290       24.6318631946       13.3014001705
  H        35.6853113824       24.1479571785       11.1427723517
  H        34.6623739701       22.2788165838        9.8308014239
  H        33.6832856526       23.5717014410       14.7420194949
  H        25.7258872164        8.6058811213       11.3940810714
  H        30.9552864080       22.6774816601        19.875481269938
  H        31.9722164636       24.5559937580        18.585496339238
  H        35.5974374923       24.1440484021        20.864689925838
  H        34.5576115928       22.2790649263        22.164655497438
  H        33.6686644291       23.5553756291        17.183192488538
  H        40.6152386652       17.0526641554        20.622946040738
  H        32.5166988654       14.1473443598        8.2377721486
  H        29.8879239820       12.4929075698        19.904619853438
  H        28.8433249145       10.5972471573        18.660316401838
  H        25.1793403894       11.2022118679        20.829382769238
  H        26.2428143778       13.0887007818        22.079843524238
  H        27.1383578739       11.6952031751        17.233296833938
  H        33.2977245810       14.1948864456        22.432348843638
  H        33.4055024313       14.3812743463        9.6096080510
  H        32.1048952151       18.5126076026        21.067971464438
  H        30.2322601160       14.1869098950        8.0769909779
  H        16.1183966089        2.9632391407       12.1298574564
  H        14.9531668872        4.8202865125       13.3225675442
  H        17.3657404641        7.6859379753       11.2098640111
  H        18.5144972165        5.8184305082       10.0100437546
  H        16.7533482767        5.7394434725       14.7715028339
  H        44.8279663657       32.1403879841       11.9771503797
  H        45.9374064339       30.3415692675       13.3065121906
  H        43.6829982765       27.3782078601       11.1521400802
  H        42.6001351998       29.1900020454        9.8095953976
  H        44.2306454757       29.4368983098       14.7688261956
  H        14.8509649948        8.5462234899       11.3633317735
  H        44.8999266970       32.2340594429        19.921574168838
  H        46.0247763514       30.4130208119        18.642041921338
  H        43.7636201036       27.4840774451        20.835205458538
  H        42.6458534975       29.3177437956        22.114296978038
  H        44.2686767790       29.4706163033        17.207883607938
  H        35.0756459789       26.6241776999        20.606118751438
  H        36.6050371746       35.1339857852        8.1807173991
  H        16.1435191312        3.0128960203        19.893843793338
  H        14.9739945805        4.8563174539        18.678161902838
  H        17.3961020160        7.7471395452        20.744955604038
  H        18.5430994151        5.8931738476        21.972576260438
  H        16.7645309923        5.7553869574        17.209028628138
  H        36.2782170018       34.4824780344        22.262932687638
  H        36.3805808128       34.2093736655        9.4998588079
  H        40.5804668343       33.2024679814        21.143152819838
  H        17.4707731585        1.9471018916        23.963909025238
  H        29.2383682524       19.4662489019       12.4327347019
  H        29.0991937223       19.1788168828        19.471919026238
  H        30.4883518269       15.6670830889        19.790597167638
  H        31.0229206660       15.5331907688       12.3467332555
  H        27.9756684304       17.8863220406       14.2382548811
  H        29.1771666452       15.6932384679       14.4996160839
  H        31.2543718615       19.5673486947        17.274374493938
  H        32.2826793510       16.1386194431        17.853015830538
  H        33.1492429011       17.6680935303       14.4871405122
  H        18.8537848362        0.8689737900       12.3354378402
  H        40.5280067101       35.2290830895        19.941890464038
  H        42.3241833941       34.4191865268        19.580179393838
  H        22.0878798291        0.6924339298       12.3514678085
  H        11.5969463091       18.7129014240       12.3824521444
  H        52.2650964038       18.4312926890        19.667406341738
  H        49.2548908891       16.4773184677        19.574536722938
  H        10.1508366119       15.7982493274       12.2925629675
  H        50.8502300273       17.6924851729        19.943974377738
  H        10.0463086336       17.3946904087       12.0519493913
  H        20.2151214681        0.0022850073       12.0419651682
  H        39.1835544618       36.1243205913        19.676358325638
 Ni        30.8157351512       17.7491907006        18.737438796538
 Ni        31.0692842022       16.6228319235       15.738846867238
 Ni        29.7248295550       18.5654929534       15.745331662838
 Ni        30.0087487064       17.4259372504       12.9942940553
  O        10.6500031545       14.3651149488        21.475650110038
  O        12.6132176854       14.6575415182        22.573721580338
  O        49.1478398738       16.8459834581        23.979619174138
  O        50.3501266798       20.9360215042        21.637964163038
  O        48.3484720165       20.5932855633        22.655748386438
  O        11.0517211312       17.0538213636        22.490497015138
  O        50.3209487506       20.8816558371       10.4068348216
  O        48.3466883212       20.5867006650        9.3270844347
  O        49.5436096536       18.2484171945       10.0682224070
  O        12.3589964642       18.6246157437        7.9997594410
  O        48.6932230829       14.1485608617        22.741098888238
  O         8.2098799337       14.2105050488        9.3226135368
  O        10.7353764627       14.5067340906       10.6643380416
  O        12.5718266185       14.5828416683        9.3284842153
  O        22.8442730310        2.0429266073        21.476943788938
  O        21.6048166026        3.5918633030        22.579868280838
  O        42.0581307019       34.1372694185        23.968863244638
  O        37.9816168508       33.1366514235        21.561920715938
  O        39.2176233345       31.5752846208        22.655719981738
  O        20.3082946856        1.0393947847        22.491833513338
  O        38.0247047934       33.1860824564       10.4148670196
  O        39.2192044808       31.5838520670        9.3262012150
  O        40.6522809434       33.7693162672       10.0601858999
  O        18.2554465650        1.3759104468        7.9968178146
  O        44.6222044420       35.1005628613        22.748548157138
  O        24.2053975943        0.0000282321        9.3208440332
  O        22.7531573499        2.0584853605       10.5840244966
  O        21.6243966588        3.5961181363        9.3424526697
  O        27.5326165471       18.6856841038        21.405374717738
  O        26.7642205119       16.9310145329        22.634196913238
  O        30.6671820197       19.4019508054        23.974094104438
  O        33.5814570775       16.2665009514        21.641485578838
  O        34.2726848656       18.1782982909        22.654000563038
  O        29.5898011363       17.0464330201        22.562949598438
  O        33.5598891234       16.3535742842       10.4054716058
  O        34.3051750558       18.2277727604        9.3356499570
  O        31.6597937160       18.3170252304       10.0702438923
  O        30.3241776844       15.1539388108        8.0716575398
  O        28.5566747403       21.0303943901        22.809761949438
  O        28.5089163984       20.9586087062        9.3931997950
  O        27.4638095153       18.6804376562       10.6526531311
  O        26.6963289284       16.9303622084        9.4083341932
  O        13.1489700502       18.6930178170       10.5873702306
  O        13.9196353323       16.9163037481        9.4051701495
  O        50.5959451816       19.3501722536        8.0206081807
  O        47.6820609307       16.3272969343       10.4171332942
  O        46.9513336248       18.1760531216        9.3241615871
  O        11.0697058514       17.0155627809        9.4896173513
  O        47.6766452320       16.3357508310        21.642674584938
  O        46.9247411342       18.2354959170        22.652460863038
  O        49.5685203262       18.3177326749        21.972059566538
  O        10.3186285067       15.1002329492        7.9971383219
  O        52.6707474836       21.0278887468        9.2418295780
  O        12.1468029364       20.8911826704        22.663061129638
  O        13.1075568443       18.6138231687        21.315468671038
  O        13.9573765815       16.9872513063        22.654955963938
  O        29.9704020954       14.5067700773       10.7362224372
  O        28.0832070669       14.6576037845        9.4836892001
  O        32.1364262645       16.8582607152        8.0083615625
  O        30.9604350937       20.9599042341       10.3293873693
  O        32.9595792838       20.5914566222        9.3232963825
  O        29.5626780553       17.0800188992        9.5582236935
  O        30.9021985359       20.8800112812        21.567932876438
  O        32.8779744950       20.5902019791        22.647691028538
  O        31.6830100347       18.2463419995        21.903318273438
  O        28.2875955126       18.6756050770        8.0039371937
  O        32.4895947248       14.2133043128        9.3228364896
  O        32.4032489377       14.2133306081        22.811827601638
  O        29.9061647541       14.4448627217        21.407673483538
  O        28.0510764355       14.5824406735        22.728883818038
  O        17.8892217756        1.9665992341       10.6628140061
  O        18.9561941607        3.5271228298        9.4080144502
  O        39.1686352184       34.1387231192        7.9972086357
  O        43.2802153839       33.0589864944       10.3316838381
  O        42.0344850802       31.5064813661        9.2416092617
  O        20.3176836493        1.0366452733        9.4802641833
  O        43.2760833535       33.1825925328        21.564702561338
  O        42.0053063424       31.5841009074        22.572762046538
  O        40.5789126016       33.7747969238        21.925527821938
  O        22.3672734558        1.3845077978        7.9980322206
  O        36.6727481031       35.0998311536        9.2332880699
  O        16.4455281849        0.0641148475        22.658006895838
  O        17.9363984314        2.0432308537        21.316166560838
  O        18.9189154976        3.5930736180        22.655736033538
  O        29.7932444547       18.7524138002        20.003791092638
  O        29.9089639551       18.9842074432       11.9090036343
  O        31.1785694715       16.3267209660        19.999523348538
  O        31.3153040825       16.4040053066       11.9997325654
  O        31.9278465785       16.9381502979        17.422250388838
  O        30.0880876138       15.9091657562       14.2370711903
  O        32.7825085442       16.7723949569       14.4059363835
  O        30.4048479000       19.1079260898        17.403287293438
  O        28.8053203439       18.3894855022       14.1519345804
  O        39.4568182191       35.2436648578        19.991736176538
  O        19.1417460289        0.0045913346       11.9905522648
  O        41.9696808183       35.1728855475        20.076992075738
  O        21.6915044237       -0.0690919638       11.8959563603
  O        51.3651463034       18.6143425592        19.995238232838
  O        10.7511025836       18.7472018401       11.9049692615
  O        50.0794625783       16.4127887786        20.081526033238
  O         9.5248539216       16.4830534252       11.9911737806
 Zr         9.2968917417       16.0526901036        22.172252791338
 Zr        49.8365143076       16.0069269034        9.7465591644
 Zr        22.0731702546        0.0296823515        22.178999040138
 Zr        42.4609663549       35.1534730823        9.8010695084
 Zr        29.6110649939       19.0549788496        22.182427197838
 Zr        29.5838872640       19.1930524914        9.7829766112
 Zr        11.0380674833       19.0519880969        9.8278662224
 Zr        11.0439036998       19.1547822572        22.240999865638
 Zr        31.3580185201       16.1205652495        9.8054763787
 Zr        31.3964839644       16.0112321236        22.216006745938
 Zr        18.6012274074       -0.0013319876        9.7634958573
 Zr        18.5063261064       -0.0080905498        22.203467673638
 Zr        12.3023722860       16.3236712225        23.980145476738
 Zr        48.6161273275       18.8329813582        8.0100258760
 Zr        20.3148971065        2.4732373352        23.980544377338
 Zr        40.6433734083       32.6869140667        23.967864145138
 Zr        28.3430103737       16.3435487635        8.0721570949
 Zr        32.6313989932       18.8470520508        23.984664055438
  H        32.4195641343       16.7139478129       13.4770777202
