     571
 i =       27, E =     -4761.6736520183
  C        11.8587045776       14.0535611596        21.731436142038
  C        12.4562344323       12.8905519627        21.013153555938
  C        11.7045850720       12.1717307622        20.071387932838
  C        12.2809372002       11.1095090694        19.379025885538
  C        13.6214644262       10.7396114111        19.606849161538
  C        14.3545875033       11.4430737752        20.580429946438
  C        13.7817180390       12.5080690419        21.271934604538
  C        14.2610344527        9.6489756506        18.833432205438
  C        14.2564014521        9.6569228224        17.411725472238
  C        13.7432033371       10.7590377398        16.657825174838
  C        49.1265871118       21.2332733950        21.869607167738
  C        48.5497716618       22.4011277353        21.142458730838
  C        49.2998893107       23.0685651312        20.161604232938
  C        48.7329698999       24.1076812615        19.428373752338
  C        47.4023427281       24.5091417156        19.656799754738
  C        46.6712688082       23.8601121546        20.670119915838
  C        47.2337083289       22.8152182231        21.399505372738
  C        46.7721681818       25.5868777661        18.859518274538
  C        46.7613236850       25.5573590940        17.437751618538
  C        47.2612752793       24.4422719794        16.694262035338
  C        14.8603680299        8.5706032846        16.698450966538
  C        14.8917497625        8.5969716519        19.510061827638
  C        49.1131068541       21.2034040902       10.1453611674
  C        48.5277297368       22.3647435801       10.8725219509
  C        49.2670818874       23.0256697143       11.8652079103
  C        48.6907560361       24.0602154601       12.5966779862
  C        47.3602571285       24.4568056387       12.3586189127
  C        46.6397065332       23.8116844316       11.3353352135
  C        47.2132510694       22.7757704697       10.6035490195
  C        46.7218690834       25.5318264956       13.1496316987
  C        46.7336301842       25.5282193665       14.5713347079
  C        47.2490334155       24.4289861551       15.3277090303
  C        40.6192275651       17.0836757135       15.3049314930
  C        40.6241582504       17.0901191481       12.4955776893
  C        11.8828882802       14.0865776327       10.2854680774
  C        12.4722051788       12.9106989949       10.9896973093
  C        11.7146881651       12.1775839984       11.9158634312
  C        12.2812380978       11.0951213968       12.5843196676
  C        13.6200089149       10.7212825036       12.3524275931
  C        14.3579629968       11.4367314595       11.3915213035
  C        13.7925750951       12.5179126865       10.7188075485
  C        14.2536360568        9.6245456038       13.1228518657
  C        14.2524964682        9.6445614900       14.5446953623
  C        13.7426017462       10.7534935728       15.2917781631
  C        22.5082592648        3.2434817455        21.740237707138
  C        23.2156849810        4.3482676247        21.033325946238
  C        24.2108592210        4.0674922854        20.085651305138
  C        24.8336377761        5.1064639562        19.399116268438
  C        24.4761681519        6.4477773959        19.640266828238
  C        23.5072357956        6.7201118871        20.623095294438
  C        22.8802467408        5.6830110481        21.308376604438
  C        25.0831182253        7.5541659141        18.866153862138
  C        25.0647952432        7.5473582359        17.444605961738
  C        24.3683550874        6.5477553949        16.693644503538
  C        38.3036973620       31.9278133295        21.835850298838
  C        37.5769962197       30.8387127191        21.120794062738
  C        36.6175871883       31.1440935175        20.143056641538
  C        36.0003224224       30.1256144065        19.421660032338
  C        36.3267161774       28.7752800277        19.655719146538
  C        37.2580895607       28.4773468929        20.668557260438
  C        37.8794542776       29.4945881147        21.388923631638
  C        35.7202828916       27.6846277969        18.858032059238
  C        35.7453558503       27.7007043268        17.436237762938
  C        36.4473327834       28.7040301206        16.696700437538
  C        25.6925869394        8.6175228534        16.729347329838
  C        25.6764839955        8.6282645955        19.541390933638
  C        38.3261242980       31.9623986743       10.1532019483
  C        37.5974823285       30.8896781771       10.8883977980
  C        36.6642872704       31.1994025825       11.8895735013
  C        36.0483748810       30.1814333547       12.6146878760
  C        36.3519898067       28.8286320784       12.3626283841
  C        37.2615096328       28.5288017332       11.3300919014
  C        37.8790896741       29.5433020019       10.6055912300
  C        35.7428905961       27.7305557694       13.1473130885
  C        35.7565740197       27.7245600935       14.5692824762
  C        36.4523657376       28.7158482056       15.3302190255
  C        46.1356409999       26.6208717886       15.2814578626
  C        46.0878367159       26.5801232399       12.4735630102
  C        22.4634551093        3.2560431722       10.2554102267
  C        23.1638219803        4.3653874517       10.9722499473
  C        24.1736462083        4.0801732579       11.9050508314
  C        24.8064762609        5.1109767257       12.5958814206
  C        24.4494037447        6.4566084993       12.3771732115
  C        23.4634850126        6.7352635447       11.4118393020
  C        22.8264860359        5.7047331310       10.7209452033
  C        25.0794905588        7.5542623369       13.1534841090
  C        25.0640478320        7.5466620468       14.5760961162
  C        24.3662383900        6.5485127648       15.3270915572
  C        26.6343725780       17.8282342124        21.732858685938
  C        25.3218324463       17.8854679868        21.022036664038
  C        25.0605673760       18.8848998414        20.071303785438
  C        23.8415577582       18.9143614250        19.397207666938
  C        22.8479181126       17.9465282183        19.649472828138
  C        23.1042431303       16.9720952390        20.632663633038
  C        24.3241109394       16.9387610931        21.306753281338
  C        21.5739709205       17.9362002936        18.886827695738
  C        21.5756699708       17.9158249454        17.464180520238
  C        22.7817604735       17.7877729698        16.705348456938
  C        34.4434182124       17.1905994554        21.899092995038
  C        35.7384698213       17.1321121858        21.161747982638
  C        35.9412898088       16.1631029053        20.166711586038
  C        37.1215120355       16.1485286479        19.429033131438
  C        38.1317069444       17.1008408697        19.667073286538
  C        37.9327391139       18.0485411462        20.689235180338
  C        36.7493028877       18.0694489567        21.423476688938
  C        39.3832562030       17.1095832431        18.876149654238
  C        39.3726308577       17.1176319271        17.454245602738
  C        38.1625369097       17.2411925274        16.701968713438
  C        20.3301178424       17.9380136058        16.754073009638
  C        20.3486608523       17.9401344674        19.567970120638
  C        34.4373778163       17.2409803696       10.1850117575
  C        35.7342104797       17.1376258651       10.9120446262
  C        35.9178586493       16.1851544906       11.9253398777
  C        37.1098442711       16.1492124427       12.6447471983
  C        38.1441989779       17.0668547321       12.3750907321
  C        37.9634714414       17.9934786469       11.3303147639
  C        36.7729662844       18.0330585298       10.6115885375
  C        39.3946493810       17.0816197723       13.1656060198
  C        39.3781886603       17.1049902983       14.5873992293
  C        38.1653674754       17.2349343728       15.3354196037
  C        35.1286613970       26.6450606624       15.2747097187
  C        35.1515437859       26.6598503691       12.4653523660
  C        26.5778445306       17.8280220828       10.3209775229
  C        25.2646789843       17.8692018794       11.0331244252
  C        25.0024443217       18.8720059169       11.9788926013
  C        23.7841237891       18.8987801506       12.6523901913
  C        22.7981021350       17.9228549437       12.4036429862
  C        23.0557372351       16.9438432223       11.4269777015
  C        24.2748204603       16.9149772217       10.7520442050
  C        21.5325571885       17.9076411063       13.1740630685
  C        21.5540675547       17.8996353257       14.5956096869
  C        22.7709461927       17.7800560795       15.3392374535
  C        14.0473719115       17.8297596370       10.2879149253
  C        15.3531859798       17.8891361689       11.0111351645
  C        15.6114175461       18.8956011766       11.9548799075
  C        16.8212410274       18.9184889605       12.6464021420
  C        17.8072344611       17.9376462963       12.4165380279
  C        17.5539940999       16.9556783667       11.4401038043
  C        16.3436958192       16.9283633557       10.7500227864
  C        19.0760228142       17.9208607729       13.1864428418
  C        19.0728083058       17.9202074860       14.6090894777
  C        17.8646965477       17.8257394986       15.3692758730
  C        46.8010632101       17.2147674485       10.1553177840
  C        45.5055295568       17.1408946223       10.8919089659
  C        45.2999240437       16.1551952893       11.8698969849
  C        44.1148410926       16.1246961679       12.6004088510
  C        43.1038394288       17.0796533562       12.3761099312
  C        43.3053255289       18.0429982998       11.3689008117
  C        44.4914557119       18.0775140190       10.6391216342
  C        41.8514928416       17.0843622487       13.1681391564
  C        41.8630611490       17.0919664806       14.5904655862
  C        43.0751091641       17.1909417510       15.3436022647
  C        20.3186282806       17.9288621121       15.3190840978
  C        20.3012200621       17.8980250524       12.5058456926
  C        46.7861128501       17.2326320244        21.875269633038
  C        45.4868847617       17.1284113326        21.152304711838
  C        45.2734835678       16.1303275813        20.189166202038
  C        44.0879560436       16.1010803419        19.458861132538
  C        43.0857941756       17.0671506202        19.673971985638
  C        43.2909352340       18.0368084130        20.673484615138
  C        44.4773226135       18.0721660125        21.399358515438
  C        41.8376985151       17.0832849840        18.879499381438
  C        41.8564369290       17.0898817477        17.458076900338
  C        43.0721248098       17.1874572722        16.710497854238
  C        46.1533685814       26.6372745609        16.716004917738
  C        46.1622012893       26.6559786377        19.525650727838
  C        14.0449109717       17.8318793630        21.698135314838
  C        15.3652287524       17.9069086311        21.006149036938
  C        15.6378793174       18.9246128020        20.079831191438
  C        16.8662488751       18.9635267928        19.423829972438
  C        17.8494792610       17.9837397776        19.668324746238
  C        17.5834621018       16.9945561239        20.632616687038
  C        16.3572306395       16.9552807934        21.292253139238
  C        19.1169420859       17.9606149691        18.899573120438
  C        19.0942572045       17.9396881685        17.477859626538
  C        17.8751311999       17.8344269669        16.735423292138
  C        28.7975731082       14.1208250508       10.3978706354
  C        28.1945957604       12.9462346228       11.0914531307
  C        28.9235802618       12.2016343510       12.0303156261
  C        28.3307489534       11.1181473140       12.6748320709
  C        26.9953347912       10.7558233415       12.4052919714
  C        26.2877400465       11.4827178897       11.4311159721
  C        26.8780653722       12.5652131752       10.7846418147
  C        26.3296774523        9.6686590598       13.1601377980
  C        26.3106197709        9.6923506875       14.5809709877
  C        26.8112207796       10.8038752030       15.3305451885
  C        32.1803633920       21.2440274651       10.1065288835
  C        32.7663978070       22.4070095697       10.8365190721
  C        32.0126338656       23.0810991051       11.8097067182
  C        32.5790208771       24.1188079763       12.5447441279
  C        33.9137432215       24.5115233625       12.3257966464
  C        34.6503046476       23.8544345974       11.3221344527
  C        34.0874096575       22.8104547624       10.5907682762
  C        34.5391480938       25.5894839240       13.1262910310
  C        34.5350770882       25.5612647605       14.5478914526
  C        34.0316142753       24.4447960576       15.2870672101
  C        25.6965435940        8.6137680536       15.2949632769
  C        25.6973553147        8.6180974188       12.4818828059
  C        32.1164584249       21.1983342419        21.829900711138
  C        32.7017294836       22.3584665201        21.095628003638
  C        31.9722241016       23.0044085455        20.085424108738
  C        32.5464088750       24.0457123668        19.360162050438
  C        33.8657639943       24.4666201825        19.620899507538
  C        34.5767251491       23.8329661265        20.658334389038
  C        34.0056666758       22.7903230822        21.383591130938
  C        34.5041644859       25.5497704957        18.837642588738
  C        34.5183045856       25.5403729596        17.415281055138
  C        34.0239904967       24.4348010135        16.653708971638
  C        40.6157904945       17.0865964458        16.739807587738
  C        40.6096943268       17.1095397053        19.550068056438
  C        28.7386935578       14.0686524533        21.776964310038
  C        28.1238586894       12.9181155364        21.051601575238
  C        28.8606162746       12.2052527582        20.092956729438
  C        28.2754410211       11.1481675191        19.401091022638
  C        26.9375138487       10.7773036485        19.642556929438
  C        26.2185733738       11.4744535399        20.631470301038
  C        26.8022974104       12.5322961353        21.325871474038
  C        26.2936642343        9.6897596510        18.868084804938
  C        26.2929121373        9.7038378764        17.446439158438
  C        26.8009709286       10.8104653343        16.696175707438
  C        18.1353299064        3.1809443948       10.3171650350
  C        17.4059226828        4.2781710507       11.0156924893
  C        16.3904835191        3.9997695793       11.9435067026
  C        15.7427254096        5.0397290889       12.6070052467
  C        16.0943355495        6.3834867938       12.3670637251
  C        17.0833435400        6.6530371116       11.4029152648
  C        17.7324607886        5.6157202411       10.7378542210
  C        15.4700743137        7.4911968354       13.1301305276
  C        15.4855134685        7.4905740972       14.5518432326
  C        16.1871425506        6.4970048020       15.3050076143
  C        42.9458535678       31.8594710475       10.0728775011
  C        43.6462213167       30.7718431138       10.8167954317
  C        44.5918022815       31.0931726848       11.8028295050
  C        45.1975403641       30.0876300593       12.5504578857
  C        44.8710916029       28.7345585465       12.3356357512
  C        43.9451963728       28.4202125662       11.3224852862
  C        43.3363502401       29.4253483825       10.5744639825
  C        45.4887029226       27.6552896345       13.1388369490
  C        45.4929255083       27.6809824774       14.5605262349
  C        44.8058579706       28.6890427654       15.3071477124
  C        14.8565599811        8.5630657579       15.2642237634
  C        14.8747141985        8.5629388425       12.4515576871
  C        42.9465016303       31.9615018906        21.798742849738
  C        43.6916818952       30.8854273732        21.085274215838
  C        44.6563041344       31.1913313647        20.112985432438
  C        45.2777913215       30.1717368172        19.395258909538
  C        44.9539628680       28.8214133707        19.632848254938
  C        44.0204488731       28.5237555897        20.643607253538
  C        43.3922064265       29.5405222052        21.355790126938
  C        45.5630064784       27.7240328906        18.847594000538
  C        45.5333830400       27.7174185880        17.426296733938
  C        44.8271085149       28.7076729212        16.673331750938
  C        35.1216377901       26.6336587982        16.709751479338
  C        35.1164533933       26.6088993144        19.519290492738
  C        18.1484816750        3.2467974311        21.696420694938
  C        17.4298977965        4.3436609246        20.987119864938
  C        16.4148370373        4.0524315614        20.063377895738
  C        15.7665560490        5.0830941223        19.387997253338
  C        16.1210966208        6.4283364612        19.610883873938
  C        17.1123169268        6.7116720007        20.568324911438
  C        17.7599319600        5.6827322267        21.248100608838
  C        15.4906496025        7.5240798716        18.838463131038
  C        15.4966100450        7.5075056708        17.417328678638
  C        16.1934058619        6.5058409998        16.670612200338
  H        10.6724739936       12.4659162150        19.894334254638
  H        11.6946331970       10.5510750507        18.652460203838
  H        15.3915795140       11.1683812071        20.762238152538
  H        14.3511162251       13.0712126670        22.007483987538
  H        13.3760988941       11.6311154206        17.191150267738
  H        50.3226606363       22.7486423393        19.977026666338
  H        49.3195086150       24.6230405068        18.670902616738
  H        45.6416748538       24.1606756584        20.853064423638
  H        46.6625800512       22.2898362670        22.161418007138
  H        47.6297052851       23.5758475792        17.235946818438
  H        14.8719785219        8.5881557448        20.598366863038
  H        50.2871831829       22.7029295220       12.0599966777
  H        49.2692012016       24.5758054927       13.3600499658
  H        45.6101953967       24.1086948736       11.1464888614
  H        46.6522617401       22.2533704462        9.8322663504
  H        47.6077699852       23.5518503237       14.7968085312
  H        40.6257803787       17.0493495269       11.4079832838
  H        48.6870383687       14.0949319518        23.789787727138
  H        10.6812342020       12.4667176581       12.0932824977
  H        11.6894120382       10.5247688606       13.2970229689
  H        15.3933571900       11.1587471695       11.2055272604
  H        14.3648805302       13.0872218951        9.9902012754
  H        13.3756768124       11.6220642299       14.7531363511
  H        47.9300789484       14.2185536886        9.7107593193
  H        47.7799578752       14.3734030923        22.485009084838
  H        49.0820854156       18.5515882124       10.8669278138
  H        10.4157785137       14.1343940414        7.9988079510
  H        24.4745875282        3.0289503144        19.898487728938
  H        25.6068845383        4.8891547909        18.665446403038
  H        23.2237069904        7.7529426615        20.814572551238
  H        22.1107128360        5.8830688552        22.049929632238
  H        23.8044069026        5.7902410661        17.230142290038
  H        36.3796033747       32.1876274223        19.950815779838
  H        35.2554013780       30.3674150396        18.666725379838
  H        37.5190855866       27.4379373518        20.856710807238
  H        38.6230973030       29.2709374007        22.150207371838
  H        37.0139094695       29.4539785511        17.241000588538
  H        25.7051608998        8.6101211278        20.629366511338
  H        36.4431212415       32.2438706683       12.0973192621
  H        35.3199586701       30.4267736731       13.3843988783
  H        37.5070676851       27.4882214063       11.1285140862
  H        38.6042255507       29.3170392982        9.8276923394
  H        37.0237904690       29.4743946270       14.8031151389
  H        46.1091469340       26.5874345147       11.3855248340
  H        44.6682042204       35.1161090420        23.803764839938
  H        24.4527375164        3.0420679408       12.0709038432
  H        25.5920508544        4.8825363481       13.3130466859
  H        23.1760564344        7.7694984714       11.2336429301
  H        22.0492625237        5.9172463864        9.9904780034
  H        23.8002689626        5.7919889963       14.7913333365
  H        44.9535690990       34.3901084160        9.6949967134
  H        44.9016821020       34.2068045419        22.480368274638
  H        40.6651415945       33.2083687472       10.8526618765
  H        23.1503446619        1.9577032596        8.0041242277
  H        25.8227829755       19.6358099898        19.876192502338
  H        23.6442674184       19.6955604812        18.666191764838
  H        22.3484928687       16.2165512793        20.837663952138
  H        24.5321545673       16.1728689785        22.050279798638
  H        23.7215602784       17.6637965139        17.235463679638
  H        35.1557550784       15.4349215952        19.979275521638
  H        37.2763398787       15.3914409395        18.663444527638
  H        38.7045452273       18.7920251483        20.877421461038
  H        36.5784803227       18.8175258947        22.194178643438
  H        37.2256431755       17.3731923473        17.235744388538
  H        20.3540989584       17.9784667598        20.655908546438
  H        35.1094274278       15.4944927707       12.1533753807
  H        37.2493912895       15.4061151831       13.4265979822
  H        38.7541279698       18.7095623550       11.1162278174
  H        36.6143701392       18.7668293977        9.8250397360
  H        37.2297464457       17.3615386817       14.7985063479
  H        35.1224067868       26.6855301578       11.3776787109
  H        28.5077695148       21.0813074887        23.856710807638
  H        25.7655905265       19.6244658876       12.1652023744
  H        23.5802271858       19.6817789999       13.3796363892
  H        22.3032918878       16.1831226810       11.2291111880
  H        24.4885758603       16.1484402726       10.0109695374
  H        23.7023917109       17.6505833631       14.7963729317
  H        29.0122437174       21.7214681309        9.7289434348
  H        29.1721237676       21.7323299440        22.532173581038
  H        32.0859833485       18.6012424972       10.9031474659
  H        27.4000625724       19.0629571108        8.0146243106
  H        14.8533551702       19.6554050009       12.1314887566
  H        17.0173626988       19.7052111280       13.3717649785
  H        18.3046177106       16.1903813427       11.2533995363
  H        16.1368156981       16.1567972670       10.0121925106
  H        16.9223469283       17.7130536154       14.8411093475
  H        46.0866766069       15.4269263736       12.0521314766
  H        43.9583914405       15.3535187281       13.3515207535
  H        42.5331578257       18.7883163558       11.1896479790
  H        44.6621495630       18.8368514527        9.8794835641
  H        44.0146147264       17.3013176415       14.8096943860
  H        20.2965198180       17.9263545808       11.4176536215
  H        46.0518991860       15.3908524429        20.015544627138
  H        43.9250002428       15.3250927951        18.714100404738
  H        42.5226452697       18.7876929198        20.845717048138
  H        44.6557088041       18.8391106167        22.149078445538
  H        44.0094449784       17.2943122101        17.248847534138
  H        46.1989120375       26.6824249583        20.613102597838
  H        52.7410427024       21.0625893127        8.1946695640
  H        14.8772974904       19.6789746402        19.890801347438
  H        17.0768749595       19.7560386333        18.708926356838
  H        18.3339655576       16.2315693763        20.828821052338
  H        16.1366198877       16.1789493221        22.020852905638
  H        16.9406157816       17.7284383592        17.278137723138
  H        52.3221770861       21.6732100704        22.284232415738
  H        52.0130817465       21.7019552478        9.4956663632
  H        49.0674598947       18.6078511413        21.193939414238
  H        13.2472634058       19.0165937057        23.966912483338
  H        29.9530082314       12.4833787678       12.2402531213
  H        28.8980683684       10.5392576045       13.4004575390
  H        25.2555167859       11.2139835511       11.2161918284
  H        26.3296126178       13.1459590872       10.0471479241
  H        27.1787815746       11.6727229815       14.7930760129
  H        30.9863399913       22.7672193774       11.9847078924
  H        31.9895754272       24.6403836333       13.2957045192
  H        35.6835761679       24.1477057815       11.1480911589
  H        34.6620860664       22.2777341971        9.8365767862
  H        33.6760140688       23.5756318676       14.7411168077
  H        25.7308543998        8.6013808438       11.3939083251
  H        30.9598086727       22.6673356944        19.874212834238
  H        31.9725825867       24.5494290906        18.585374251838
  H        35.5981014034       24.1454163318        20.865789769338
  H        34.5606827529       22.2802969802        22.167525119338
  H        33.6637992543       23.5568295172        17.182041184938
  H        40.6077509750       17.0761128758        20.637889749038
  H        32.5164942524       14.1484441755        8.2456352028
  H        29.8942481916       12.4899508733        19.910291227838
  H        28.8534986663       10.5916334929        18.666546072738
  H        25.1838315884       11.1992653590        20.825205132438
  H        26.2441123391       13.0869958553        22.076415972038
  H        27.1592603992       11.6845012956        17.232097318038
  H        33.2977014673       14.1876853497        22.431445737438
  H        33.4035425932       14.3889872527        9.6124739977
  H        32.1095127656       18.5106500452        21.073596132738
  H        30.2369416549       14.1853446338        8.0851731950
  H        16.1186416335        2.9632453251       12.1301187458
  H        14.9534706350        4.8202939938       13.3228639998
  H        17.3654409084        7.6859469524       11.2095016811
  H        18.5141793062        5.8183957981       10.0096723431
  H        16.7536960168        5.7396662492       14.7715049070
  H        44.8281237122       32.1402470693       11.9769897754
  H        45.9374490082       30.3413678166       13.3063643047
  H        43.6824471942       27.3781489938       11.1524129141
  H        42.5996906189       29.1899552469        9.8098587015
  H        44.2304696157       29.4367818291       14.7688422823
  H        14.8508007958        8.5461165549       11.3633414488
  H        44.8998994719       32.2340021404        19.921556331638
  H        46.0247164437       30.4129337538        18.642032583738
  H        43.7634271708       27.4840339263        20.835136872838
  H        42.6456996896       29.3176934117        22.114218234838
  H        44.2685355931       29.4705248826        17.207895744338
  H        35.0763640597       26.6216532730        20.606872597538
  H        36.6049722884       35.1339638487        8.1806896336
  H        16.1438018782        3.0128595245        19.893537279338
  H        14.9743184974        4.8562659589        18.677807734638
  H        17.3956693358        7.7471486559        20.745407783038
  H        18.5426282739        5.8931429160        21.973068484038
  H        16.7648448621        5.7555970523        17.209038828038
  H        36.2781866411       34.4824250030        22.262959633238
  H        36.3804652624       34.2094258692        9.4998969115
  H        40.5803075259       33.2022639259        21.143210802038
  H        17.4707505745        1.9469983385        23.963876718138
  H        29.1989293057       19.5832466429       12.4523484354
  H        28.9111620669       18.8783386845        19.639041737038
  H        30.4720802668       15.6989678078        19.780929959038
  H        30.9248985149       15.6017565198       12.3538689185
  H        27.8939316820       17.8898885064       14.3406441525
  H        29.1624354817       15.7795815392       14.5914094923
  H        31.3041457918       19.4722428218        17.197833980438
  H        32.2138223495       16.1815662596        17.817680505138
  H        33.0257574374       17.7117545440       14.4889795627
  H        18.8531566565        0.8687758240       12.3353892804
  H        40.5280367335       35.2291391949        19.941922817638
  H        42.3239140847       34.4189710972        19.580348248138
  H        22.0877630188        0.6923822688       12.3515273137
  H        11.5970304537       18.7127359632       12.3823563475
  H        52.2648907411       18.4310912365        19.667420865138
  H        49.2548176447       16.4771502211        19.574588452638
  H        10.1498899431       15.7982728709       12.2929886710
  H        50.8499302764       17.6924874810        19.944035483838
  H        10.0458189330       17.3945616510       12.0520103848
  H        20.2143145398        0.0021007819       12.0420792923
  H        39.1835317851       36.1243189909        19.676327295238
 Ni        30.8172799977       17.7945350667        18.738940873538
 Ni        30.9462323058       16.6430906803       15.822460059838
 Ni        29.6732295771       18.5511427606       15.828408627238
 Ni        29.8908791558       17.4931537747       13.0737453476
  O        10.6499902572       14.3651016324        21.475618404238
  O        12.6132303173       14.6575626728        22.573710991838
  O        49.1478027113       16.8459999163        23.979637659738
  O        50.3500886568       20.9360561350        21.638019395038
  O        48.3484553621       20.5932579652        22.655805929038
  O        11.0516998851       17.0538400435        22.490451749838
  O        50.3209552600       20.8816778422       10.4068315696
  O        48.3466919373       20.5867256547        9.3271196551
  O        49.5434814682       18.2484056873       10.0683028572
  O        12.3589289289       18.6245742858        7.9997771724
  O        48.6932351777       14.1485788576        22.741089795938
  O         8.2098670415       14.2104370919        9.3225734096
  O        10.7353524399       14.5067543081       10.6643508316
  O        12.5718234036       14.5828529549        9.3285037465
  O        22.8442948721        2.0428045525        21.476968125738
  O        21.6049252134        3.5919625955        22.579726943938
  O        42.0580698249       34.1371984449        23.968854340638
  O        37.9816278937       33.1364565810        21.561927457938
  O        39.2176558068       31.5752896076        22.655749205138
  O        20.3082308566        1.0393338553        22.491826143638
  O        38.0247827003       33.1862773065       10.4147809093
  O        39.2191089226       31.5838027896        9.3262975485
  O        40.6522835072       33.7692985037       10.0602010748
  O        18.2554719266        1.3758724533        7.9967903042
  O        44.6222023736       35.1005572663        22.748561377638
  O        24.2054035996        0.0000054899        9.3208417830
  O        22.7531962317        2.0580307059       10.5838371298
  O        21.6246427965        3.5962486818        9.3427668513
  O        27.5339754408       18.6832826468        21.403946628438
  O        26.7640107500       16.9315001580        22.635089096838
  O        30.6681802747       19.4034373572        23.983752254738
  O        33.5841918395       16.2762043353        21.647436364438
  O        34.2796441524       18.1654965769        22.713132381438
  O        29.5996233761       17.0273511029        22.566044176038
  O        33.5484073921       16.3423861021       10.4145415638
  O        34.2997966246       18.2392547550        9.4024466000
  O        31.6525497113       18.3207053945       10.0806414618
  O        30.3252477561       15.1527231328        8.0755635905
  O        28.5561836996       21.0303653195        22.810541902438
  O        28.5102396375       20.9570998823        9.3984900239
  O        27.4629083158       18.6801981266       10.6529088832
  O        26.6964370790       16.9298975129        9.4080085924
  O        13.1490767869       18.6930135428       10.5873967472
  O        13.9196687426       16.9162700405        9.4051501477
  O        50.5957927307       19.3501605015        8.0207234056
  O        47.6825909867       16.3270240428       10.4171295324
  O        46.9501938606       18.1755471621        9.3255231655
  O        11.0695946134       17.0155950791        9.4896556778
  O        47.6765063328       16.3356901538        21.642887222238
  O        46.9260700061       18.2356008782        22.653453516238
  O        49.5685085791       18.3177007703        21.972187488438
  O        10.3185643908       15.1002573808        7.9971255938
  O        52.6707485040       21.0278913806        9.2418425299
  O        12.1467906040       20.8911692604        22.663034638738
  O        13.1075145556       18.6138508060        21.315445911738
  O        13.9575435538       16.9872886938        22.654894953138
  O        29.9706233838       14.5048373760       10.7369631048
  O        28.0834547100       14.6568420317        9.4849785772
  O        32.1302399863       16.8606500630        8.0225143512
  O        30.9594335770       20.9594397987       10.3312603923
  O        32.9587520620       20.5934621531        9.3257657173
  O        29.5598019243       17.0838930410        9.5597390711
  O        30.9055182118       20.8788965576        21.570185829138
  O        32.8803192660       20.5874048720        22.651091798838
  O        31.6862637134       18.2464533763        21.908862571838
  O        28.2901314540       18.6747508924        8.0062521713
  O        32.4888807825       14.2135898781        9.3254814432
  O        32.4035304256       14.2136450840        22.810967408038
  O        29.9073861516       14.4452562465        21.407219798538
  O        28.0514218396       14.5818113088        22.728477100638
  O        17.8892250901        1.9666150288       10.6628193518
  O        18.9562225830        3.5271211532        9.4080007051
  O        39.1686453585       34.1386920662        7.9971576688
  O        43.2801918201       33.0589557347       10.3316861008
  O        42.0344694830       31.5064653175        9.2415973343
  O        20.3176516061        1.0366220815        9.4803077040
  O        43.2760683803       33.1825704381        21.564696415638
  O        42.0052859011       31.5841147976        22.572771388238
  O        40.5788950406       33.7747375275        21.925487896038
  O        22.3672102237        1.3845090366        7.9980313285
  O        36.6727133562       35.0998454256        9.2332601415
  O        16.4455212809        0.0640801418        22.657987788538
  O        17.9364238821        2.0432115118        21.316187734638
  O        18.9189475277        3.5930457536        22.655744208438
  O        29.7845472148       18.7529897704        20.051705216838
  O        29.8634161406       19.0491645291       11.9771382564
  O        31.1806692140       16.3388451611        19.988764269638
  O        31.1868780025       16.4793893903       12.0054794456
  O        31.8892835303       17.0059329666        17.404572538638
  O        30.0631450222       16.0382715081       14.3222366881
  O        32.8700328052       16.7672977469       14.3266849541
  O        30.4154176432       19.1253786051        17.408870554338
  O        28.7222485590       18.3967431703       14.2546441011
  O        39.4568415099       35.2436978783        19.991743013038
  O        19.1411232344        0.0043615835       11.9905821330
  O        41.9696838896       35.1728940741        20.077024136038
  O        21.6914183278       -0.0690937949       11.8959306155
  O        51.3650022676       18.6143242605        19.995259583738
  O        10.7511692539       18.7471622112       11.9049359915
  O        50.0794400544       16.4128065635        20.081547352438
  O         9.5241742097       16.4831349087       11.9912028546
 Zr         9.2965521865       16.0527654887        22.172202697138
 Zr        49.8359703303       16.0068806208        9.7465832665
 Zr        22.0730874931        0.0294129940        22.179081615238
 Zr        42.4608853836       35.1531961082        9.8011078987
 Zr        29.6209648458       19.0558469479        22.201140007338
 Zr        29.5793280003       19.1919028746        9.8016501985
 Zr        11.0377048956       19.0520133776        9.8278002033
 Zr        11.0434193975       19.1548580186        22.241133464938
 Zr        31.3508760817       16.1222373817        9.8207921914
 Zr        31.4010997535       16.0114770647        22.219600747738
 Zr        18.6010915846       -0.0015448557        9.7633642194
 Zr        18.5062469033       -0.0083354348        22.203401567538
 Zr        12.3018317998       16.3236634041        23.980125544938
 Zr        48.6155403231       18.8328732776        8.0105458441
 Zr        20.3148508448        2.4729891057        23.980591924938
 Zr        40.6432457003       32.6866328610        23.967886635538
 Zr        28.3480328940       16.3401451407        8.0708386126
 Zr        32.6328778210       18.8465528661        8.0152951347
  H        32.4148000018       16.7369777439       13.4455882222
