     564
 i =      336, E =     -4680.1472382625
  C        11.8585444336       14.0533902652        21.731441439738
  C        12.4560379338       12.8904099866        21.013081979138
  C        11.7044795147       12.1718872281        20.071017850938
  C        12.2807772682       11.1096470414        19.378652022938
  C        13.6211920030       10.7394684806        19.606656077738
  C        14.3542420120       11.4426486935        20.580503277638
  C        13.7814166458       12.5076421299        21.272062386238
  C        14.2606251390        9.6487447226        18.833283747838
  C        14.2558567390        9.6565923252        17.411585956138
  C        13.7427782873       10.7587296560        16.657651011638
  C        49.1264395353       21.2334666455        21.869600733338
  C        48.5495270368       22.4012877793        21.142523111838
  C        49.2995569190       23.0686487856        20.161556781338
  C        48.7325551506       24.1076866588        19.428292418438
  C        47.4019423610       24.5091357690        19.656807565738
  C        46.6709373922       23.8601324321        20.670192567138
  C        47.2334579240       22.8153057572        21.399600698338
  C        46.7717042539       25.5868017983        18.859517256738
  C        46.7607703580       25.5571867207        17.437764664738
  C        47.2606770737       24.4420753143        16.694285405438
  C        14.8595662908        8.5701201203        16.698333087038
  C        14.8913648228        8.5967611138        19.509899625138
  C        49.1128577184       21.2034646371       10.1453396260
  C        48.5274082030       22.3647556611       10.8724915862
  C        49.2665836456       23.0255081098       11.8654149409
  C        48.6901764900       24.0600035651       12.5968803792
  C        47.3597192790       24.4566301385       12.3586477127
  C        46.6393060398       23.8116177273       11.3351969272
  C        47.2129561676       22.7757672490       10.6034173660
  C        46.7212701644       25.5316010575       13.1496534846
  C        46.7329615910       25.5279571916       14.5713540287
  C        47.2484049373       24.4287464184       15.3277354715
  C        40.6198643636       17.1050236311       15.3120055270
  C        40.6315752720       17.1255486423       12.5016419594
  C        11.8826750189       14.0863746563       10.2854677481
  C        12.4716781385       12.9102262193       10.9894753694
  C        11.7141435358       12.1775012750       11.9159385024
  C        12.2804709762       11.0949001403       12.5843432705
  C        13.6190885942       10.7206200101       12.3522054950
  C        14.3570129662       11.4355892291       11.3908926634
  C        13.7918265180       12.5169130278       10.7182187735
  C        14.2525780475        9.6238474555       13.1226917469
  C        14.2515866602        9.6439797695       14.5445524497
  C        13.7420099503       10.7530915995       15.2916013883
  C        22.5083427451        3.2431903375        21.741583060038
  C        23.2162977049        4.3485078258        21.037105500938
  C        24.2120363883        4.0689104379        20.089805274238
  C        24.8335740249        5.1089190964        19.404094086138
  C        24.4738623452        6.4494920869        19.645809981338
  C        23.5053429658        6.7207596811        20.629160720138
  C        22.8795478369        5.6826094867        21.313630678538
  C        25.0775063561        7.5557689475        18.870000997838
  C        25.0582442809        7.5457097359        17.448744326538
  C        24.3602375592        6.5447936184        16.701134619938
  C        38.2974361077       31.9272785556        21.841768633138
  C        37.5543510903       30.8388514177        21.141239884738
  C        36.5871252337       31.1467847597        20.171794746338
  C        35.9542479161       30.1298156314        19.461967099338
  C        36.2728161426       28.7777395381        19.697342021838
  C        37.2094628137       28.4772548520        20.704617546438
  C        37.8462270243       29.4932837678        21.414162888538
  C        35.6594570312       27.6908551737        18.898221758438
  C        35.6966267185       27.7073792691        17.476225338738
  C        36.4103816640       28.7074971265        16.743158290438
  C        25.6860519961        8.6137821828        16.730565597138
  C        25.6687943936        8.6325997470        19.542185924538
  C        38.3297624311       31.9598807285       10.1609761620
  C        37.6120382182       30.8873733060       10.9110993770
  C        36.6783328821       31.1983652849       11.9120164062
  C        36.0659117528       30.1828317492       12.6447817178
  C        36.3715158241       28.8282572865       12.4021427337
  C        37.2866999429       28.5272183029       11.3743164922
  C        37.9008777735       29.5393551296       10.6423941404
  C        35.7527436242       27.7312392719       13.1841986106
  C        35.7439720702       27.7281857117       14.6071556512
  C        36.4315603744       28.7185203753       15.3767327031
  C        46.1351083305       26.6206862811       15.2814668768
  C        46.0872320741       26.5798902315       12.4735801470
  C        22.4610805442        3.2538880393       10.2549985151
  C        23.1580174559        4.3612627322       10.9746232097
  C        24.1635564015        4.0728204994       11.9106980119
  C        24.7940794683        5.1019238885       12.6049797863
  C        24.4380846284        6.4471979000       12.3846565752
  C        23.4561101847        6.7291224375       11.4165986091
  C        22.8210368437        5.7002441300       10.7225973210
  C        25.0689058182        7.5434063819       13.1592926400
  C        25.0549941158        7.5384185401       14.5813690794
  C        24.3563949026        6.5427199136       15.3346644539
  C        26.5210638581       17.7970913407        21.812596997138
  C        25.2278522796       17.8589552860        21.071025783138
  C        24.9731361170       18.8924053308        20.156231106838
  C        23.7736357450       18.9248593177        19.449337608438
  C        22.7958993230       17.9291139328        19.641009850538
  C        23.0454981238       16.9166525789        20.585577312938
  C        24.2477521146       16.8778612567        21.288130791238
  C        21.5338132532       17.9328569806        18.863962993438
  C        21.5469350782       17.9416306920        17.442846714538
  C        22.7600813102       17.8414789542        16.691262423738
  C        34.4133613709       17.2248791757        21.875695873838
  C        35.7137905133       17.1659732373        21.145331549338
  C        35.9154927742       16.2016678962        20.145442665438
  C        37.1017785025       16.1798664671        19.417763417138
  C        38.1183808591       17.1225801020        19.667180886938
  C        37.9200980149       18.0652669309        20.694226788538
  C        36.7318963975       18.0910230130        21.421533558338
  C        39.3732432365       17.1267930191        18.880665621538
  C        39.3669509268       17.1371197543        17.458291447138
  C        38.1596384007       17.2656567120        16.701923523038
  C        20.3052829993       17.9656223172        16.727563508338
  C        20.3070590688       17.9202558047        19.539121069338
  C        34.4227570768       17.2119343258       10.2174980089
  C        35.7319340741       17.1305974338       10.9265839063
  C        35.9469109759       16.1619397711       11.9185815359
  C        37.1412467952       16.1426412331       12.6335761176
  C        38.1500591949       17.0923993991       12.3786591806
  C        37.9417917070       18.0331640523       11.3523547033
  C        36.7465313751       18.0565291723       10.6384671214
  C        39.4012832028       17.1149560452       13.1689834013
  C        39.3813370147       17.1318347669       14.5907803789
  C        38.1664838266       17.2612838226       15.3352752175
  C        35.1014138477       26.6527233234       15.3073247399
  C        35.1685475272       26.6587715869       12.4972934503
  C        26.5692773497       17.8296948058       10.3259388587
  C        25.2530493639       17.8918341353       11.0225787271
  C        24.9831402639       18.9194223584       11.9385907455
  C        23.7651840223       18.9551216221       12.6106262543
  C        22.7894910451       17.9642383127       12.3869498445
  C        23.0516592789       16.9627770336       11.4349680162
  C        24.2706998089       16.9243436007       10.7621551306
  C        21.5249375669       17.9549153880       13.1563094467
  C        21.5418855286       17.9515088576       14.5772384363
  C        22.7576143052       17.8459190406       15.3250515616
  C        14.0453712721       17.8340854660       10.2815222574
  C        15.3534681833       17.9044993907       10.9939357169
  C        15.6127345529       18.9249999128       11.9215000207
  C        16.8245807940       18.9575087512       12.6070720783
  C        17.8069932681       17.9720707885       12.3857345205
  C        17.5541892314       16.9774561172       11.4230488782
  C        16.3419667980       16.9409127996       10.7382827918
  C        19.0717076709       17.9608140444       13.1576806807
  C        19.0604579378       17.9582002618       14.5788597284
  C        17.8472297654       17.8566493968       15.3297140946
  C        46.8022681570       17.2171910696       10.1574581499
  C        45.5092564205       17.1502154722       10.8988883093
  C        45.3015329615       16.1674781666       11.8793308588
  C        44.1177292461       16.1436940260       12.6122369937
  C        43.1106178425       17.1028440252       12.3880063790
  C        43.3150806235       18.0643964455       11.3797510617
  C        44.4995573614       18.0918858673       10.6473868657
  C        41.8573197960       17.1116113757       13.1780525149
  C        41.8653993313       17.1119406013       14.6005151649
  C        43.0756963029       17.2028230594       15.3577164819
  C        20.3023725755       17.9693637595       15.2940097591
  C        20.2980997055       17.9393857982       12.4820532664
  C        46.7841023879       17.2320488331        21.876900829138
  C        45.4816475682       17.1271548726        21.158719323338
  C        45.2623960662       16.1269397407        20.199165854938
  C        44.0745977464       16.0991104498        19.472152080538
  C        43.0756615661       17.0687955277        19.686563649538
  C        43.2858099723       18.0395748100        20.683945122938
  C        44.4744728862       18.0734543706        21.406443254938
  C        41.8282306359       17.0899795235        18.890288014638
  C        41.8506781602       17.0994482527        17.468817410038
  C        43.0687445862       17.1941451575        16.724560119238
  C        46.1527801006       26.6370640312        16.716004826538
  C        46.1618065146       26.6559372723        19.525636904038
  C        14.0378573776       17.8272061206        21.694640479738
  C        15.3485693612       17.8940380458        20.989395016438
  C        15.6165275958       18.9185241805        20.069711470138
  C        16.8379893783       18.9555279564        19.402720164538
  C        17.8150603876       17.9667799981        19.631465599238
  C        17.5521724894       16.9669753557        20.584975628438
  C        16.3330570160       16.9299171441        21.256172331238
  C        19.0806923862       17.9521230451        18.864318622038
  C        19.0653168467       17.9529166823        17.443607216838
  C        17.8496185064       17.8540120862        16.695487354138
  C        28.8114115878       14.0847156670       10.3970830461
  C        28.2059909845       12.9046094203       11.0743985118
  C        28.9330064846       12.1562183824       12.0117738084
  C        28.3340104385       11.0810765887       12.6625968000
  C        26.9950056824       10.7302545326       12.3978585437
  C        26.2909715025       11.4555798788       11.4201833572
  C        26.8870670472       12.5317401626       10.7689354099
  C        26.3242192321        9.6524052387       13.1590074944
  C        26.3065555672        9.6810843044       14.5795826463
  C        26.8098293331       10.7941915311       15.3250001719
  C        32.1781601869       21.2322124373       10.1481939456
  C        32.7699036676       22.4009018428       10.8667472243
  C        32.0143909233       23.0878111845       11.8300840384
  C        32.5801373419       24.1298191864       12.5587791877
  C        33.9184211817       24.5149911647       12.3472936188
  C        34.6567405392       23.8472886681       11.3515334567
  C        34.0931106025       22.8000071729       10.6240238804
  C        34.5412675717       25.5924870380       13.1520547412
  C        34.5140751715       25.5692627170       14.5744260309
  C        33.9919335505       24.4587439130       15.3103565702
  C        25.6900363377        8.6060420342       15.2966827522
  C        25.6881583443        8.6030626914       12.4839763862
  C        32.0683520498       21.1935662676        21.869339223838
  C        32.6351619349       22.3622025618        21.129790820638
  C        31.8976319136       23.0148064962        20.129813358038
  C        32.4678707826       24.0565493036        19.399360691538
  C        33.7899472070       24.4767071980        19.648195327838
  C        34.5080799990       23.8383123815        20.678101473938
  C        33.9431436593       22.7932833991        21.404153224138
  C        34.4300700717       25.5624755857        18.866604587238
  C        34.4560317456       25.5546954445        17.443769261038
  C        33.9628649999       24.4523037586        16.676943097638
  C        40.6120286276       17.1030730536        16.747084461938
  C        40.5983384768       17.1201967056        19.557574444238
  C        28.7335008542       14.0636603436        21.776401365738
  C        28.1148952268       12.9190874594        21.046770269338
  C        28.8540093647       12.2003455533        20.094555369938
  C        28.2677221014       11.1451422593        19.401436052438
  C        26.9270832257       10.7816774338        19.637228390838
  C        26.2049032280       11.4851691581        20.618907223738
  C        26.7894840159       12.5421601340        21.313670075638
  C        26.2848479185        9.6922226325        18.865359253338
  C        26.2865586996        9.7020802840        17.443963475238
  C        26.7976580044       10.8054525767        16.690713979638
  C        18.1351789688        3.1807442991       10.3171864801
  C        17.4055847652        4.2778526508       11.0157233350
  C        16.3899160470        3.9992497734       11.9432210739
  C        15.7419551458        5.0390524543       12.6067567859
  C        16.0934640264        6.3828599919       12.3669675959
  C        17.0826840206        6.6526613256       11.4030936639
  C        17.7319908330        5.6154636198       10.7380044484
  C        15.4689606894        7.4904611916       13.1300118341
  C        15.4844618894        7.4898960224       14.5517398339
  C        16.1860924103        6.4963287248       15.3049121038
  C        42.9456914029       31.8593636678       10.0728068211
  C        43.6459537423       30.7716867515       10.8167323242
  C        44.5914285468       31.0929595798       11.8028681613
  C        45.1970806680       30.0873744408       12.5504963260
  C        44.8705693662       28.7343297977       12.3356268203
  C        43.9447992081       28.4200474232       11.3223468015
  C        43.3360383475       29.4252281525       10.5743264770
  C        45.4881432319       27.6550753475       13.1388540688
  C        45.4922517626       27.6807093148       14.5605414628
  C        44.8053200486       28.6888763909       15.3071447093
  C        14.8555961082        8.5624581111       15.2641049653
  C        14.8736229745        8.5621956873       12.4513913036
  C        42.9463763471       31.9614679774        21.798811416138
  C        43.6914972183       30.8853428687        21.085342430138
  C        44.6560775823       31.1912393777        20.113023486538
  C        45.2775157347       30.1716384702        19.395275283538
  C        44.9536191640       28.8213341829        19.632835516738
  C        44.0201176680       28.5236986638        20.643602626038
  C        43.3919239025       29.5404668064        21.355818721538
  C        45.5625868132       27.7239463317        18.847551469938
  C        45.5329280995       27.7173010345        17.426262576138
  C        44.8265507685       28.7074983486        16.673327463738
  C        35.0743661423       26.6438475701        16.743091410838
  C        35.0438772041       26.6180879302        19.553882905138
  C        18.1483580321        3.2467814382        21.696334837638
  C        17.4296853111        4.3435696194        20.986996110638
  C        16.4144735894        4.0522526800        20.063438483238
  C        15.7661346499        5.0828589732        19.388038764638
  C        16.1206086275        6.4281239624        19.610812718838
  C        17.1120079149        6.7115342387        20.568034528338
  C        17.7597165126        5.6826782860        21.247860708238
  C        15.4900981839        7.5237744988        18.838338129438
  C        15.4958573064        7.5070607245        17.417215180038
  C        16.1924871167        6.5052844848        16.670514641538
  H        10.6724672559       12.4663206733        19.893803157638
  H        11.6945058787       10.5514233266        18.651911004338
  H        15.3911364131       11.1677146983        20.762533593438
  H        14.3507293174       13.0704893607        22.007934473338
  H        13.3760050806       11.6309886130        17.190891628838
  H        50.3223328065       22.7487536489        19.976956346038
  H        49.3189976566       24.6230307491        18.670734550638
  H        45.6413536812       24.1606915093        20.853189259838
  H        46.6624235306       22.2899565704        22.161597508638
  H        47.6290918701       23.5756596600        17.235997030438
  H        14.8717386421        8.5880438736        20.598199924538
  H        50.2866574643       22.7027317694       12.0602788959
  H        49.2685159764       24.5755254370       13.3603771908
  H        45.6098450862       24.1087092987       11.1462150391
  H        46.6521211585       22.2535230469        9.8319284460
  H        47.6070861076       23.5515784870       14.7968554333
  H        40.6356953588       17.0903285208       11.4138537643
  H        48.6869887357       14.0950966870        23.789771698938
  H        10.6808507291       12.4670473587       12.0936015734
  H        11.6886704902       10.5248836130       13.2973445162
  H        15.3922962559       11.1572368895       11.2047038169
  H        14.3641565622       13.0858861677        9.9893420143
  H        13.3752597934       11.6217181765       14.7529055289
  H        47.9300058187       14.2185025579        9.7107205215
  H        47.7799466924       14.3738634942        22.485062395438
  H        49.0822047220       18.5519238142       10.8670340283
  H        10.4155941179       14.1342993922        7.9987787192
  H        24.4766261976        3.0306932737        19.902152102638
  H        25.6069595741        4.8933416293        18.670090976738
  H        23.2207590230        7.7532488610        20.820937803438
  H        22.1097182673        5.8810487031        22.055305587238
  H        23.7961057389        5.7891497836        17.240023113738
  H        36.3559278475       32.1911674694        19.975966217038
  H        35.2052947935       30.3744067982        18.711884821138
  H        37.4640983871       27.4367605666        20.895599731438
  H        38.5945701059       29.2666371143        22.170005527838
  H        36.9733768619       29.4561400279        17.292844764638
  H        25.6974316194        8.6182224264        20.630207361738
  H        36.4511929164       32.2430160312       12.1124937410
  H        35.3353164179       30.4324750647       13.4110671644
  H        37.5376558024       27.4866377935       11.1793194977
  H        38.6274588367       29.3089217255        9.8669545050
  H        37.0115845619       29.4753637915       14.8564551650
  H        46.1085997660       26.5872078802       11.3855443486
  H        44.6681736476       35.1161195539        23.803807282038
  H        24.4406680292        3.0340812155       12.0754363327
  H        25.5771244216        4.8733756445       13.3248107152
  H        23.1712003696        7.7641459063       11.2390261442
  H        22.0464863385        5.9128892654        9.9893724729
  H        23.7887439112        5.7859938986       14.8010025318
  H        44.9535326093       34.3898966655        9.6947754922
  H        44.9017280257       34.2067516830        22.480442373338
  H        40.6658737126       33.2086108990       10.8529887594
  H        23.1501211905        1.9575164188        8.0043621646
  H        25.7237004924       19.6672265660        20.018020866538
  H        23.5768038200       19.7300904670        18.744765896338
  H        22.2982917233       16.1405116049        20.737883313138
  H        24.4560683945       16.0850714305        22.002700984738
  H        23.6982910981       17.7272501188        17.226682441038
  H        35.1234182286       15.4838038257        19.945969362738
  H        37.2560998960       15.4244435589        18.650453397738
  H        38.6962750595       18.8016796909        20.892126735738
  H        36.5632450808       18.8345094908        22.197192860238
  H        37.2219423716       17.4010280172        17.233328860438
  H        20.3073350168       17.9374843517        20.627497896938
  H        35.1590577043       15.4420132888       12.1271524297
  H        37.3056961528       15.3882169199       13.3997418117
  H        38.7135337721       18.7726527856       11.1488357690
  H        36.5659659075       18.8012624554        9.8668583720
  H        37.2337539154       17.3925550021       14.7943425367
  H        35.1555586502       26.6809515559       11.4092114209
  H        28.4971229779       21.0734966551        23.882678275238
  H        25.7399562052       19.6820964470       12.1057218398
  H        23.5542306800       19.7538687380       13.3183917450
  H        22.3038065042       16.1925995321       11.2577286050
  H        24.4916812644       16.1397374675       10.0425097657
  H        23.6941663940       17.7350324677       14.7863883717
  H        29.0335124270       21.7039207954        9.7271091048
  H        29.2166451679       21.6807644297        22.556219274738
  H        32.0940289376       18.5498811528       10.9958775684
  H        27.3717064737       19.0223089647        8.0793685703
  H        14.8535081914       19.6853122133       12.0901809114
  H        17.0247721768       19.7519330971       13.3228363571
  H        18.3054309152       16.2106689054       11.2453638628
  H        16.1308883687       16.1606556572       10.0109309724
  H        16.9086583849       17.7466530197       14.7945247553
  H        46.0851602403       15.4356393576       12.0608320853
  H        43.9588150478       15.3738907543       13.3642179429
  H        42.5462202551       18.8132510845       11.2010805262
  H        44.6724929630       18.8491883002        9.8862764950
  H        44.0172742107       17.3115866409       14.8271485319
  H        20.2982771018       17.9629494614       11.3937859504
  H        46.0383851493       15.3850711769        20.024737172138
  H        43.9080380522       15.3220352111        18.729292784238
  H        42.5202690788       18.7932271996        20.856418481338
  H        44.6566525127       18.8418345194        22.153765480638
  H        44.0050705204       17.2952419394        17.265738224938
  H        46.1985812446       26.6824233375        20.613083829538
  H        52.7411186626       21.0625501675        8.1945732405
  H        14.8586600846       19.6794050270        19.897179711938
  H        17.0497247870       19.7536258507        18.694456215938
  H        18.3001194478       16.1975249991        20.764818587838
  H        16.1120792811       16.1485082721        21.979193738538
  H        16.9128572273       17.7419793790        17.233223073038
  H        52.3219802828       21.6736064573        22.284770770238
  H        52.0131759611       21.7023746086        9.4952829197
  H        49.0671539766       18.6077824700        21.194043727638
  H        13.2470106485       19.0164535012        23.964960197138
  H        29.9643590972       12.4325853114       12.2179385462
  H        28.8971833088       10.5009251492       13.3903596863
  H        25.2566420298       11.1925614134       11.2084859917
  H        26.3402074786       13.1153461263       10.0325835475
  H        27.1788196049       11.6611633141       14.7850432276
  H        30.9861199836       22.7799345864       12.0030462122
  H        31.9874337082       24.6601679203       13.3009037209
  H        35.6925170582       24.1337205169       11.1808526173
  H        34.6704434681       22.2612556326        9.8760981123
  H        33.6394302664       23.5892236411       14.7629652181
  H        25.7208949272        8.5831211028       11.3960804716
  H        30.8814290181       22.6835763929        19.927691464538
  H        31.8873490307       24.5611256600        18.630045304238
  H        35.5314345368       24.1488414122        20.878572746038
  H        34.5065749085       22.2798197456        22.179604161538
  H        33.5880802099       23.5776598692        17.201064829438
  H        40.5934049765       17.0852784284        20.645367623038
  H        32.5065246788       14.1558943193        8.2685714581
  H        29.8910124268       12.4770721268        19.919328500338
  H        28.8467399816       10.5834292430        18.671640874838
  H        25.1677402621       11.2151004016        20.806802715938
  H        26.2298526602       13.1027681815        22.058765010638
  H        27.1561154373       11.6812799966        17.223731085838
  H        33.2971374459       14.2296527061        22.365470338038
  H        33.4080242213       14.4140827727        9.5894523598
  H        32.0731339563       18.5153599475        21.162946892538
  H        30.1997297379       14.1461260808        8.0848040409
  H        16.1182305581        2.9626730349       12.1297376299
  H        14.9525714152        4.8194868122       13.3224389621
  H        17.3647457455        7.6856388282       11.2098805659
  H        18.5139225634        5.8182968751       10.0100664109
  H        16.7525909641        5.7389539084       14.7713867249
  H        44.8277622066       32.1400278407       11.9770329026
  H        45.9368933093       30.3410723129       13.3065061265
  H        43.6820419108       27.3779928201       11.1522538299
  H        42.5995222089       29.1898869087        9.8095723947
  H        44.2298693868       29.4365588091       14.7688305817
  H        14.8497007790        8.5453069803       11.3631539885
  H        44.8997005312       32.2339061738        19.921641683638
  H        46.0244062377       30.4128182598        18.642013406338
  H        43.7630162554       27.4839857362        20.835061121038
  H        42.6453928003       29.3176585963        22.114223210738
  H        44.2680401076       29.4703960423        17.207888841838
  H        34.9981644667       26.6289041238        20.641296501938
  H        36.6052283902       35.1339120997        8.1806329895
  H        16.1434968508        3.0126487006        19.893691774338
  H        14.9737983430        4.8559362078        18.678007451738
  H        17.3953972490        7.7470256018        20.744983134038
  H        18.5425467376        5.8931777626        21.972686586838
  H        16.7639836214        5.7550827541        17.208919867138
  H        36.2787908157       34.4820599871        22.263155377038
  H        36.3808013482       34.2089916238        9.4996058674
  H        40.5787174199       33.2014976112        21.143923290238
  H        17.4707210308        1.9470531939        23.963761423338
  H        28.9956207847       19.3172848102       12.5549864393
  H        28.6431151316       18.7583588692        19.811808459838
  H        30.6976190531       15.4958496029        19.772551859938
  H        31.2781803470       15.6099986369       12.5809014155
  H        18.8535160159        0.8690478168       12.3350589968
  H        40.5281762481       35.2290086302        19.941968403538
  H        42.3231990657       34.4181743997        19.580667075238
  H        22.0875392188        0.6920508872       12.3514407160
  H        11.5965663804       18.7127338716       12.3826676639
  H        52.2643317300       18.4317081149        19.667080737738
  H        49.2557731317       16.4762911832        19.573808218038
  H        10.1501832947       15.7983605190       12.2927249486
  H        50.8497379914       17.6924235518        19.943834129138
  H        10.0458463624       17.3947726594       12.0519664588
  H        20.2148668252        0.0021290688       12.0419536675
  H        39.1836101452       36.1242913524        19.676160970438
 Ni        30.4398552478       17.6164500740        18.736430817338
 Ni        30.8158512031       16.6270827419        16.157096084138
 Ni        29.6400360434       18.4722863581        16.319609002738
 Ni        30.3106859425       17.5976898330       13.6561897933
  O        10.6498913244       14.3651766802        21.475587144138
  O        12.6131287563       14.6574168616        22.573623312138
  O        49.1477259481       16.8459438007        23.979523884538
  O        50.3500074383       20.9365165250        21.638094034138
  O        48.3484441599       20.5932642038        22.655775960338
  O        11.0508977467       17.0540265795        22.490347882838
  O        50.3206838824       20.8817781523       10.4068959499
  O        48.3466303773       20.5866900676        9.3270574808
  O        49.5433786046       18.2484685384       10.0683937380
  O        12.3586704426       18.6246038277        7.9997181821
  O        48.6931498346       14.1486020342        22.741049224238
  O         8.2098025070       14.2104075869        9.3225689206
  O        10.7352164162       14.5067732080       10.6643564430
  O        12.5717276826       14.5826666805        9.3285781521
  O        22.8441409827        2.0426638870        21.477217885738
  O        21.6042260996        3.5915645222        22.580273317838
  O        42.0578708991       34.1369152140        23.968664181738
  O        37.9812555635       33.1361891913        21.562113128238
  O        39.2171881821       31.5749523948        22.655368062938
  O        20.3083026713        1.0393623273        22.491626913938
  O        38.0240788962       33.1843681277       10.4159302800
  O        39.2179337140       31.5824962845        9.3279444751
  O        40.6521312202       33.7690180602       10.0601719769
  O        18.2555999669        1.3761424290        7.9967678973
  O        44.6222429487       35.1005111790        22.748554599738
  O        24.2054375543       -0.0000950188        9.3207859884
  O        22.7527195168        2.0563758718       10.5829871837
  O        21.6237939639        3.5951575769        9.3414678285
  O        27.3976721227       18.7002153852        21.556066392938
  O        26.6572662997       16.8541619873        22.660781832838
  O        30.6249507463       19.3449738122        8.0730535244
  O        33.5376766674       16.3425082956        21.578637512638
  O        34.2644135690       18.1705863507        22.728312395638
  O        29.5277844160       17.0055684765        22.573587140238
  O        33.5390041876       16.3267746633       10.4923812153
  O        34.2642041329       18.1805607411        9.4040115667
  O        31.6439800597       18.3149736490       10.1671544294
  O        30.2974779017       15.1119759996        8.0866520899
  O        28.5471569891       21.0254379588        22.829267409138
  O        28.5168044039       20.9445281305        9.4073827318
  O        27.4600632548       18.6804568398       10.6602324449
  O        26.6918311690       16.9275123819        9.4206230209
  O        13.1459003686       18.6941481811       10.5857055292
  O        13.9177938778       16.9159945010        9.4038724342
  O        50.5957018677       19.3503109216        8.0207433628
  O        47.6819910325       16.3272072495       10.4174087664
  O        46.9507830257       18.1757827700        9.3251647347
  O        11.0687602665       17.0159473578        9.4896017472
  O        47.6748042643       16.3358849477        21.642531083438
  O        46.9258943842       18.2359388117        22.653485906938
  O        49.5686880748       18.3177927139        21.972037376838
  O        10.3185201251       15.1001823312        7.9970828870
  O        52.6706280949       21.0279977150        9.2418025136
  O        12.1468118919       20.8914683725        22.663109133538
  O        13.1034517399       18.6143885608        21.316289316038
  O        13.9554938456       16.9866835699        22.655139614338
  O        29.9947298541       14.4431621045       10.7369903305
  O        28.0893129675       14.6490046410        9.5029574299
  O        32.0678607667       16.8510665997        8.0846050428
  O        30.9615641936       20.9423410324       10.4132756720
  O        32.9432646137       20.5959656081        9.3382638526
  O        29.5620534856       17.0706193438        9.5777050096
  O        30.8428646956       20.8767395018        21.648550763038
  O        32.8646024894       20.5790191744        22.656202067638
  O        31.6101699197       18.2468261338        21.973738772838
  O        28.2564947723       18.6218529904        8.0784966851
  O        32.4913679350       14.2154969241        9.3234739588
  O        32.4013838163       14.2187669417        22.741845099938
  O        29.9032733989       14.4362294310        21.413884683138
  O        28.0464098330       14.5769426577        22.729119571438
  O        17.8891236421        1.9664090036       10.6628159221
  O        18.9560752919        3.5270836732        9.4080771588
  O        39.1685388845       34.1385904051        7.9971175854
  O        43.2801490398       33.0587788994       10.3317144672
  O        42.0342700686       31.5064171886        9.2415680541
  O        20.3172540816        1.0362089951        9.4803999557
  O        43.2760516106       33.1824594231        21.564681247438
  O        42.0051634516       31.5840410331        22.572799420038
  O        40.5789380122       33.7749592823        21.925487192938
  O        22.3670348940        1.3842713722        7.9978721473
  O        36.6728001625       35.0996240262        9.2333108504
  O        16.4456362150        0.0640919199        22.658067504538
  O        17.9363703171        2.0431536255        21.316135528438
  O        18.9187878403        3.5931313108        22.655642663638
  O        29.5772683537       18.6899191148        20.081985847238
  O        29.7413265049       18.8287008198       12.1634820981
  O        31.0909860685       16.3390460177        20.065922993838
  O        31.2518845211       16.4849732092       12.1560127890
  H        30.7179196235       16.2418230205       14.6231947822
  H        29.3637511514       18.5734128190       14.7446351135
  O        39.4568280521       35.2437137136        19.991783709338
  O        19.1414434381        0.0045223264       11.9905115329
  O        41.9695251135       35.1726386564        20.076917586138
  O        21.6912222170       -0.0694514173       11.8958861382
  O        51.3643942389       18.6144224678        19.995016388538
  O        10.7508298905       18.7472485465       11.9050722208
  O        50.0800275350       16.4127166048        20.081465898638
  O         9.5242659908       16.4831543486       11.9912066025
 Zr         9.2964119717       16.0529119606        22.172036357038
 Zr        49.8357824919       16.0069894153        9.7466636654
 Zr        22.0731912245        0.0293099663        22.178926700938
 Zr        42.4607411838       35.1528975334        9.8007186372
 Zr        29.5498792350       19.0346461918        22.276449679038
 Zr        29.5656777919       19.1583139815        9.8966353381
 Zr        11.0371487588       19.0524434229        9.8278050384
 Zr        11.0430410956       19.1552458927        22.241041098738
 Zr        31.3173979418       16.1103763175        9.9258177618
 Zr        31.3625806886       16.0038819609        22.257773942438
 Zr        18.6008551982       -0.0020976816        9.7636467606
 Zr        18.5065266128       -0.0081371749        22.203195786038
 Zr        12.3006678651       16.3233501219        23.980371826738
 Zr        48.6157935019       18.8328750080        8.0102710163
 Zr        20.3142558277        2.4726682679        23.980408389038
 Zr        40.6426921261       32.6863927014        23.967893254838
 Zr        28.3227741475       16.3074746438        8.0866470763
 Zr        32.6015361600       18.8198000783        8.0557142169
  H        31.2473251084       16.7002785636        17.723584950138
  H        30.0902604370       18.8390924754        17.818223542638
