     560
 i =      213, E =     -4677.7161422455
  C        11.8585624419       14.0534444986        21.731313722438
  C        12.4559024541       12.8903758382        21.013097436638
  C        11.7041985101       12.1715844887        20.071340701838
  C        12.2804942107       11.1093413108        19.378983163838
  C        13.6209990885       10.7393274656        19.606795730238
  C        14.3541464509       11.4427225712        20.580414430638
  C        13.7813357311       12.5077178210        21.271958425438
  C        14.2604422861        9.6486264438        18.833379187038
  C        14.2555541609        9.6564423001        17.411674767438
  C        13.7424047787       10.7585583112        16.657751471438
  C        49.1266089912       21.2334656940        21.869567140138
  C        48.5497385325       22.4013122755        21.142525128438
  C        49.2997693008       23.0686183242        20.161504980438
  C        48.7327959046       24.1076432317        19.428202959838
  C        47.4022377724       24.5092370284        19.656779227338
  C        46.6712799730       23.8603878280        20.670303913938
  C        47.2337573797       22.8155714937        21.399757169638
  C        46.7719859792       25.5868549342        18.859434389338
  C        46.7610470617       25.5572560700        17.437678395238
  C        47.2610217817       24.4421876425        16.694180963138
  C        14.8593752720        8.5700439771        16.698399830338
  C        14.8912920615        8.5967012837        19.510007565238
  C        49.1129485310       21.2034483504       10.1453039345
  C        48.5275412027       22.3647782605       10.8724022466
  C        49.2667135491       23.0254068310       11.8654229208
  C        48.6903801996       24.0599681426       12.5968482788
  C        47.3600185125       24.4568388696       12.3584898034
  C        46.6396930642       23.8120640871       11.3348162882
  C        47.2132489506       22.7761550595       10.6030464234
  C        46.7215464629       25.5317496198       13.1495427374
  C        46.7332610270       25.5280707590       14.5712456496
  C        47.2487668146       24.4288957364       15.3276322541
  C        40.6184247516       17.0946475401       15.3178066268
  C        40.6370412416       17.1394403691       12.5073239479
  C        11.8827733887       14.0863625393       10.2854529438
  C        12.4717666346       12.9103445233       10.9895742158
  C        11.7141776627       12.1775065860       11.9159252430
  C        12.2805027019       11.0949120249       12.5843347470
  C        13.6191606419       10.7207003714       12.3523259864
  C        14.3571681272       11.4358586480       11.3912343694
  C        13.7920019098       12.5171614199       10.7185421504
  C        14.2525928840        9.6238943671       13.1227859401
  C        14.2514119325        9.6439339412       14.5446275180
  C        13.7417051595       10.7529526508       15.2917049763
  C        22.5056589849        3.2424442407        21.738503105938
  C        23.2079120197        4.3459933351        21.026372287738
  C        24.2056527034        4.0640493719        20.081898639038
  C        24.8254893791        5.1020716702        19.391781661238
  C        24.4616319346        6.4426455259        19.626473529138
  C        23.4886146162        6.7162897117        20.604708603138
  C        22.8650269806        5.6802167264        21.293986522138
  C        25.0688892730        7.5481202279        18.852937235138
  C        25.0610316750        7.5381510980        17.431936179738
  C        24.3692022418        6.5367813674        16.679671398838
  C        38.2999161177       31.9275754341        21.838310160338
  C        37.5625149077       30.8406905703        21.129316524938
  C        36.5984531120       31.1516247777        20.157575347138
  C        35.9685167927       30.1373457753        19.441213647538
  C        36.2864718584       28.7845386569        19.672871324138
  C        37.2220204971       28.4809868338        20.680440499238
  C        37.8558875218       29.4943111648        21.396383940138
  C        35.6699600470       27.6986218345        18.875045494338
  C        35.6975192665       27.7148824389        17.452825133638
  C        36.4065980738       28.7145447183        16.715076603138
  C        25.6928072616        8.6074958912        16.719176306438
  C        25.6519964677        8.6260180102        19.529940955638
  C        38.3261999091       31.9607883967       10.1566509341
  C        37.5982281501       30.8893307139       10.8975554480
  C        36.6642033300       31.2022995069       11.8974956623
  C        36.0440862930       30.1876481828       12.6245343231
  C        36.3427126310       28.8324829811       12.3771613345
  C        37.2552887620       28.5295308575       11.3476333679
  C        37.8772240790       29.5408806194       10.6212404532
  C        35.7241431471       27.7371864871       13.1611473275
  C        35.7250511701       27.7345636958       14.5839723137
  C        36.4187579509       28.7246597537       15.3484157905
  C        46.1352498629       26.6207015641       15.2813846993
  C        46.0875169333       26.5800616615       12.4734989889
  C        22.4650494226        3.2545310281       10.2526544907
  C        23.1706390695        4.3613989129       10.9656030664
  C        24.1814598574        4.0716131682       11.8957796004
  C        24.8190816378        5.0998419446       12.5851754993
  C        24.4650548601        6.4460286457       12.3667228407
  C        23.4787646724        6.7292889679       11.4034861317
  C        22.8369349420        5.7013043459       10.7138658100
  C        25.0969536431        7.5407248298       13.1438382444
  C        25.0758962365        7.5338378638       14.5658008043
  C        24.3734552714        6.5366195706       15.3134893410
  C        26.5590522556       17.8263382294        21.777687571938
  C        25.2579023201       17.8908608170        21.053174461338
  C        25.0067722788       18.9029904978        20.113871429038
  C        23.7993311647       18.9327171171        19.420394308738
  C        22.8113857714       17.9537692424        19.646188139938
  C        23.0574945318       16.9655511709        20.617596235938
  C        24.2660217339       16.9307248566        21.309333052338
  C        21.5463291329       17.9465507856        18.873572237338
  C        21.5554401470       17.9388359196        17.451693407438
  C        22.7660719415       17.8295644654        16.697141363038
  C        34.4190600736       17.2154922472        21.903079086938
  C        35.7140686727       17.1464295114        21.165324613338
  C        35.9054944243       16.1802405991        20.165239075238
  C        37.0881733578       16.1527838109        19.430860847338
  C        38.1102794954       17.0916057967        19.673220959538
  C        37.9205782667       18.0372882283        20.699517551938
  C        36.7368114700       18.0690212624        21.433183723138
  C        39.3642579403       17.0939168986        18.884299972838
  C        39.3599268303       17.1050142893        17.461642935138
  C        38.1527379670       17.2195838933        16.702454731938
  C        20.3119206173       17.9556447418        16.738907908138
  C        20.3203429692       17.9385357609        19.551360888338
  C        34.4508045774       17.1884860795       10.1761559301
  C        35.7541557340       17.1152744083       10.8974186438
  C        35.9901699192       16.1157391878       11.8542050349
  C        37.1747403031       16.1076521627       12.5859405788
  C        38.1577115568       17.0941788911       12.3759869118
  C        37.9309822774       18.0671815674       11.3843516314
  C        36.7421988278       18.0835684688       10.6593414370
  C        39.4059617403       17.1162698555       13.1722432950
  C        39.3814120765       17.1158068577       14.5936938711
  C        38.1627521576       17.2209271936       15.3355908198
  C        35.0874052415       26.6590195705       15.2880483471
  C        35.1353323030       26.6649783155       12.4783882780
  C        26.5666467646       17.8262128644       10.3277178666
  C        25.2533856048       17.8792256908       11.0304917366
  C        24.9741783481       18.9115259892       11.9386789033
  C        23.7558295758       18.9411744159       12.6108530783
  C        22.7886288509       17.9402050521       12.3948961236
  C        23.0606299042       16.9326917857       11.4521116168
  C        24.2800143512       16.8998350889       10.7795009494
  C        21.5235584674       17.9281842250       13.1644768052
  C        21.5430745739       17.9284795716       14.5853894966
  C        22.7601815626       17.8250692736       15.3308829234
  C        14.0453432668       17.8314901819       10.2842455754
  C        15.3515051172       17.8950194242       11.0018464732
  C        15.6112372066       18.9088435876       11.9367215484
  C        16.8217346282       18.9345549647       12.6254648127
  C        17.8036345872       17.9491271037       12.4001597729
  C        17.5497403762       16.9606331712       11.4312294486
  C        16.3387951714       16.9306115698       10.7437334740
  C        19.0697220791       17.9344201321       13.1705831941
  C        19.0618567795       17.9348356831       14.5921524227
  C        17.8508922550       17.8349689280       15.3470103528
  C        46.8034631145       17.2187658125       10.1593430999
  C        45.5124041697       17.1560563934       10.9050780005
  C        45.3059571637       16.1773254376       11.8897577942
  C        44.1233573246       16.1568002691       12.6248218017
  C        43.1159527786       17.1153174376       12.3984875284
  C        43.3200362208       18.0740970157       11.3874746895
  C        44.5032758737       18.0982283610       10.6529925989
  C        41.8614281794       17.1223937207       13.1865750585
  C        41.8655227937       17.1147282094       14.6090434250
  C        43.0736512019       17.2095482940       15.3691870926
  C        20.3052975948       17.9494715158       15.3050034645
  C        20.2953789469       17.9110333488       12.4924977232
  C        46.7826824913       17.2306972302        21.878062548138
  C        45.4780264390       17.1213238348        21.162905770038
  C        45.2603494694       16.1206749723        20.203323975838
  C        44.0711707502       16.0884070063        19.478468691038
  C        43.0682110418       17.0534673422        19.695323846538
  C        43.2763932114       18.0239810350        20.693428848138
  C        44.4668977617       18.0627356874        21.413284871038
  C        41.8204675395       17.0705695335        18.898229382438
  C        41.8446629095       17.0863962781        17.476860779338
  C        43.0636129070       17.1935539782        16.735766812638
  C        46.1529889817       26.6371098922        16.715931699038
  C        46.1620185950       26.6559581850        19.525563583038
  C        14.0400298094       17.8289919766        21.696373278438
  C        15.3539613625       17.8997294322        20.996562529038
  C        15.6222716810       18.9219837838        20.074356042438
  C        16.8461011348       18.9607596096        19.411430434438
  C        17.8261311082       17.9762848977        19.646618644038
  C        17.5635077750       16.9801259394        20.604076523338
  C        16.3418251067       16.9410061707        21.270831436738
  C        19.0921929630       17.9597801243        18.879106862838
  C        19.0737367778       17.9475266164        17.458189646838
  C        17.8567589797       17.8407020176        16.713007479438
  C        28.8125605084       14.0855514497       10.3655123445
  C        28.2155143232       12.9083880641       11.0566533672
  C        28.9442045751       12.1784763335       12.0072592678
  C        28.3517886515       11.1030912107       12.6652330935
  C        27.0187338332       10.7334551060       12.3938078069
  C        26.3133703173       11.4434031086       11.4056196086
  C        26.9018862313       12.5197922309       10.7483039685
  C        26.3514653328        9.6515090233       13.1530307434
  C        26.3253187745        9.6784177757       14.5735315801
  C        26.8210617123       10.7917676862       15.3236996856
  C        32.1775118895       21.2415638108       10.1050787022
  C        32.7589047329       22.4076261604       10.8345099060
  C        32.0025784141       23.0729073139       11.8124680803
  C        32.5626954994       24.1124676052       12.5501014639
  C        33.8943280172       24.5173683952       12.3319415325
  C        34.6327235181       23.8687947821       11.3231479631
  C        34.0762881238       22.8235307216       10.5879179903
  C        34.5139301974       25.5971222053       13.1366915576
  C        34.4966005840       25.5742117852       14.5592855019
  C        33.9839521037       24.4620984016       15.2989887070
  C        25.7063508406        8.6011510146       15.2855052959
  C        25.7201208003        8.6013134972       12.4736207190
  C        32.0731125980       21.1954678582        21.834645625138
  C        32.6478354712       22.3666144513        21.106547827938
  C        31.9139381345       23.0170562373        20.102211244238
  C        32.4837742479       24.0625090581        19.378483398438
  C        33.8033653170       24.4853619788        19.634869296038
  C        34.5177746206       23.8495090748        20.668962245038
  C        33.9516451632       22.8023869013        21.391668143938
  C        34.4419887008       25.5696383174        18.851480053038
  C        34.4598606487       25.5605098159        17.428530136038
  C        33.9653913157       24.4559665174        16.665672814538
  C        40.6071585877       17.0841636879        16.752901276138
  C        40.5890176062       17.0922848777        19.562842660838
  C        28.6617094977       14.0610137208        21.809002650738
  C        28.0584493607       12.9151971358        21.069907617738
  C        28.8138548797       12.2028620201        20.125813473538
  C        28.2411938123       11.1479275420        19.420978451738
  C        26.8991623868       10.7786255145        19.638307921638
  C        26.1602540032       11.4764196377        20.611645592738
  C        26.7308489839       12.5334730018        21.317449671138
  C        26.2708583720        9.6870517385        18.858585596538
  C        26.2855820092        9.6966997967        17.437548416838
  C        26.8001065829       10.8016181709        16.689235201138
  C        18.1352451895        3.1808620038       10.3171883775
  C        17.4055905197        4.2779799672       11.0156709706
  C        16.3898410855        3.9993666267       11.9430810524
  C        15.7418362507        5.0391809412       12.6065678578
  C        16.0935393736        6.3829693417       12.3670153228
  C        17.0828817660        6.6527530118       11.4032899111
  C        17.7322487942        5.6155787358       10.7382405777
  C        15.4690107261        7.4905410059       13.1300820879
  C        15.4843546091        7.4899021907       14.5518004755
  C        16.1859749515        6.4963225394       15.3049543148
  C        42.9456580142       31.8594100346       10.0727818477
  C        43.6459935644       30.7716942666       10.8166948543
  C        44.5915357739       31.0930254213       11.8027443927
  C        45.1971909683       30.0874807369       12.5504394710
  C        44.8706744610       28.7344377274       12.3356093938
  C        43.9448235069       28.4200910669       11.3224263490
  C        43.3360505676       29.4252375158       10.5743549925
  C        45.4882927007       27.6551596215       13.1387840581
  C        45.4924594819       27.6807825394       14.5604744806
  C        44.8053954744       28.6888508405       15.3070940770
  C        14.8554224823        8.5624191512       15.2641716106
  C        14.8737198469        8.5623025838       12.4515040633
  C        42.9464043079       31.9615046993        21.798841166538
  C        43.6916258465       30.8853398908        21.085391052838
  C        44.6562918091       31.1912420779        20.113165592038
  C        45.2777027873       30.1716587691        19.395333295938
  C        44.9537387425       28.8213583368        19.632820849938
  C        44.0201898056       28.5236876219        20.643540266538
  C        43.3920364658       29.5404601159        21.355816645038
  C        45.5627221623       27.7239548011        18.847519664238
  C        45.5330283025       27.7172762709        17.426221227838
  C        44.8266791677       28.7074973676        16.673281925338
  C        35.0711584026       26.6505811500        16.723926541138
  C        35.0585485165       26.6259557087        19.534606480038
  C        18.1484228003        3.2468049728        21.696417817738
  C        17.4297974787        4.3436047797        20.987017609438
  C        16.4145551421        4.0522563831        20.063516098938
  C        15.7660931346        5.0828381603        19.388184939938
  C        16.1206856827        6.4280972872        19.610837885638
  C        17.1121647399        6.7115615781        20.567963137338
  C        17.7599475023        5.6827025538        21.247702237438
  C        15.4900396002        7.5237267255        18.838414219538
  C        15.4957000938        7.5069946514        17.417275490038
  C        16.1923687720        6.5052433604        16.670559088738
  H        10.6721251323       12.4658665426        19.894248098338
  H        11.6941838154       10.5509662208        18.652381918038
  H        15.3911186010       11.1679638790        20.762237623038
  H        14.3507902246       13.0707552634        22.007550226138
  H        13.3755592176       11.6307697829        17.191033068538
  H        50.3225132211       22.7486565346        19.976852864538
  H        49.3192792705       24.6229197528        18.670636586438
  H        45.6417815249       24.1611540559        20.853440068338
  H        46.6627451728       22.2903678520        22.161880032038
  H        47.6296050999       23.5758262000        17.235857336438
  H        14.8717800019        8.5880104692        20.598316406138
  H        50.2867141695       22.7024740222       12.0604212753
  H        49.2687232070       24.5753589524       13.3604271148
  H        45.6103536227       24.1094398234       11.1456189377
  H        46.6524977916       22.2541198624        9.8313441977
  H        47.6075769511       23.5517879276       14.7967446140
  H        40.6433144862       17.1149758601       11.4192433625
  H        48.6870163804       14.0951122757        23.789774307538
  H        10.6808281693       12.4669364944       12.0934585342
  H        11.6886305203       10.5247599129       13.2971599753
  H        15.3924725255       11.1576002771       11.2051392924
  H        14.3644164629       13.0862195252        9.9898289968
  H        13.3749480229       11.6215969437       14.7530703491
  H        47.9300920085       14.2183557146        9.7109043419
  H        47.7799554519       14.3738990726        22.485055177538
  H        49.0829897814       18.5523120480       10.8672463939
  H        10.4158199283       14.1343081332        7.9987538182
  H        24.4738850319        3.0256114693        19.900846150938
  H        25.6017236307        4.8851038069        18.661191712838
  H        23.2004497954        7.7489799752        20.789810155338
  H        22.0929969402        5.8801036475        22.032939638238
  H        23.8028043903        5.7800902042        17.214741322238
  H        36.3666425743       32.1966214625        19.965821976038
  H        35.2207851403       30.3847292909        18.690839324538
  H        37.4767998606       27.4398874224        20.867870489438
  H        38.6023604468       29.2650131428        22.153298343838
  H        36.9734953393       29.4631792046        17.260822040838
  H        25.6709145975        8.6120079652        20.618141264338
  H        36.4440958915       32.2475726191       12.1024282143
  H        35.3144707704       30.4382808256       13.3914196156
  H        37.4995437033       27.4881413945       11.1484959855
  H        38.6030703407       29.3095145628        9.8453811369
  H        36.9959660159       29.4807002845       14.8239639932
  H        46.1089191893       26.5874938272       11.3854639046
  H        44.6681933158       35.1161218139        23.803909055738
  H        24.4565733660        3.0323264970       12.0605099437
  H        25.6050072004        4.8695397001       13.3013277128
  H        23.1949998260        7.7647721508       11.2267876762
  H        22.0588649801        5.9158070690        9.9849156074
  H        23.8095251492        5.7803925200       14.7753058608
  H        44.9535020199       34.3898522829        9.6947463586
  H        44.9018025360       34.2067961083        22.480502627338
  H        40.6650136986       33.2082175043       10.8526970340
  H        23.1501764894        1.9576033164        8.0031600200
  H        25.7670430903       19.6618191312        19.943280163638
  H        23.6061104873       19.7219299473        18.697029825538
  H        22.3031644442       16.2024514326        20.797955037538
  H        24.4713713309       16.1550368461        22.043310493838
  H        23.7060056916       17.7164673033        17.229610345938
  H        35.1086163417       15.4662944256        19.969527108738
  H        37.2343878952       15.3952147781        18.664058676938
  H        38.7003183382       18.7714291487        20.891586500138
  H        36.5753351307       18.8154303777        22.207537026538
  H        37.2114823967       17.3382105895        17.231603379638
  H        20.3226456694       17.9678229609        20.639496294838
  H        35.2315649060       15.3543968194       12.0202216967
  H        37.3531240586       15.3313611814       13.3268962403
  H        38.6834966035       18.8348917968       11.2162535909
  H        36.5460809009       18.8530759058        9.9162660227
  H        37.2290163265       17.3380135911       14.7928246565
  H        35.1155173909       26.6874964390       11.3903963642
  H        28.5080055643       21.0824148462        23.871159737138
  H        25.7220542478       19.6845292998       12.0994092640
  H        23.5383935586       19.7432468849       13.3128951089
  H        22.3200463061       16.1540983027       11.2813410181
  H        24.5079521983       16.1108989983       10.0667783773
  H        23.6955264916       17.7095021541       14.7911065194
  H        28.9746397495       21.7254381614        9.6980935692
  H        29.1857017960       21.7037904880        22.514523158038
  H        32.1770898960       18.6272452276       10.8472475700
  H        27.3683122557       19.0319127524        8.0744615446
  H        14.8536981194       19.6701911230       12.1084655452
  H        17.0217635140       19.7248227033       13.3458504611
  H        18.2995807661       16.1933195867       11.2499579796
  H        16.1280465022       16.1548241728       10.0115534413
  H        16.9110675011       17.7202227910       14.8149268830
  H        46.0892911803       15.4453774853       12.0722151579
  H        43.9651362853       15.3890963624       13.3790839413
  H        42.5515989248       18.8230672007       11.2073947116
  H        44.6755520739       18.8530327748        9.8892429763
  H        44.0154417854       17.3279940336       14.8410142274
  H        20.2934624697       17.9331622754       11.4041983702
  H        46.0390110419       15.3821635466        20.026502376138
  H        43.9070364470       15.3114720441        18.734903392238
  H        42.5081473060       18.7743072329        20.868475591338
  H        44.6471301599       18.8316268222        22.160624908738
  H        43.9979002994       17.2984069348        17.279751873538
  H        46.1988195904       26.6825016250        20.613009742338
  H        52.7412187477       21.0626699059        8.1946198307
  H        14.8624778722       19.6795713569        19.895830096438
  H        17.0568748193       19.7565360340        18.700258258838
  H        18.3134792972       16.2140901785        20.789938121738
  H        16.1215171232       16.1613819711        21.995960166638
  H        16.9213247527       17.7304069400        17.253360367338
  H        52.3224610331       21.6736897267        22.284505611538
  H        52.0135601492       21.7025903702        9.4955062999
  H        49.0670466757       18.6076365751        21.194047768338
  H        13.2472407744       19.0163780533        23.965920494138
  H        29.9714501543       12.4699370706       12.2156142133
  H        28.9168075829       10.5360053467       13.4018659708
  H        25.2835921307       11.1668875114       11.1890578232
  H        26.3541792105       13.0901079978       10.0022003766
  H        27.1905129209       11.6607649832       14.7874232360
  H        30.9796194224       22.7493149372       11.9904074201
  H        31.9691867805       24.6261330798       13.3032716070
  H        35.6634674040       24.1698955087       11.1473886310
  H        34.6542577862       22.3004027790        9.8294685298
  H        33.6308997900       23.5908771400       14.7546503509
  H        25.7581267529        8.5830176809       11.3858529125
  H        30.9016329508       22.6793240668        19.891723017338
  H        31.9059801686       24.5663230121        18.606678416938
  H        35.5391603274       24.1629275839        20.874906493038
  H        34.5116307429       22.2906967597        22.170852347138
  H        33.5981049559       23.5797920663        17.192380105438
  H        40.5824400806       17.0558107093        20.650578354438
  H        32.5123007162       14.1457252475        8.1735626084
  H        29.8517441786       12.4853364003        19.965036797238
  H        28.8321212507       10.5910485792        18.697059551138
  H        25.1217856380       11.2013165749        20.784187016438
  H        26.1588828325       13.0900019033        22.056173917238
  H        27.1530540230       11.6776680913        17.225636185238
  H        33.2909788857       14.2343330429        22.345718181638
  H        33.4088848966       14.3826357762        9.5268654800
  H        32.1079216083       18.5214573142        21.117816503838
  H        30.1952600744       14.1397504180        8.0760797368
  H        16.1179862027        2.9627926626       12.1293981758
  H        14.9523790708        4.8195850769       13.3221526901
  H        17.3651475337        7.6856905590       11.2102843903
  H        18.5142836830        5.8184183729       10.0104428394
  H        16.7524757060        5.7389538992       14.7714348556
  H        44.8278149758       32.1401102877       11.9769124642
  H        45.9370602693       30.3412092118       13.3063888203
  H        43.6820437112       27.3780322141       11.1523825026
  H        42.5993644316       29.1899319804        9.8097452694
  H        44.2300150776       29.4365959774       14.7687817126
  H        14.8499521588        8.5455168260       11.3632853755
  H        44.8999546432       32.2339153830        19.921830119638
  H        46.0246527372       30.4128654957        18.642128574638
  H        43.7630631724       27.4839692733        20.834964651538
  H        42.6454589801       29.3176677713        22.114191272838
  H        44.2681688894       29.4703840877        17.207873739238
  H        35.0180267166       26.6377091797        20.622203097138
  H        36.6051279755       35.1339792363        8.1806183176
  H        16.1435146970        3.0126520333        19.893868364038
  H        14.9736813500        4.8559081141        18.678224345338
  H        17.3956172242        7.7470509382        20.744800210438
  H        18.5427835747        5.8932213870        21.972485159138
  H        16.7638735499        5.7550406487        17.208972791338
  H        36.2786908517       34.4821198560        22.263217723538
  H        36.3806242906       34.2092594489        9.4997542459
  H        40.5794374038       33.2020470866        21.143863989338
  H        17.4707583894        1.9471736539        23.963822856838
  H        28.7721428197       18.9799429830       12.2849449815
  H        28.7340614579       18.7552568498        19.695904712438
  H        30.6231051159       15.4352335165        19.797564964738
  H        32.4616297267       16.3077881895       12.2773470986
  H        18.8534998832        0.8689694065       12.3352244346
  H        40.5282459887       35.2290153357        19.941977072338
  H        42.3233635791       34.4185176016        19.580390065338
  H        22.0874475924        0.6921578824       12.3516046627
  H        11.5967124362       18.7128411121       12.3825568217
  H        52.2648650074       18.4312973046        19.667408498738
  H        49.2550724747       16.4765764612        19.573957034638
  H        10.1505250556       15.7983090234       12.2924565891
  H        50.8500146661       17.6927194482        19.943808148238
  H        10.0461619597       17.3947758784       12.0518917229
  H        20.2147081043        0.0020512606       12.0420021334
  H        39.1836255484       36.1242754604        19.676159945138
 Ni        30.7350563873       17.6463950420        18.818832075738
 Ni        30.5628787428       16.0833338676       14.408904151938
 Ni        30.6913067527       17.4726603364        16.160757954738
 Ni        30.7305159923       17.8887275726       13.1564901480
  O        10.6497839335       14.3651902615        21.475588590438
  O        12.6130344058       14.6573942758        22.573639101938
  O        49.1476305008       16.8459389091        23.979481041838
  O        50.3500752171       20.9362956597        21.638028108938
  O        48.3484634767       20.5932691358        22.655725952038
  O        11.0509056126       17.0540714564        22.490451766038
  O        50.3207174468       20.8816706279       10.4068917365
  O        48.3466000451       20.5866609846        9.3270563815
  O        49.5433471971       18.2484095439       10.0682969675
  O        12.3587918269       18.6246851720        7.9996822658
  O        48.6931531244       14.1486577843        22.741057564038
  O         8.2098080601       14.2104813685        9.3225812979
  O        10.7352286298       14.5067743624       10.6643518811
  O        12.5716968903       14.5827111617        9.3285559468
  O        22.8440689370        2.0419611494        21.477305967338
  O        21.6043679487        3.5916023414        22.579882552538
  O        42.0578590784       34.1369774989        23.968920403338
  O        37.9813619993       33.1366338160        21.562096689338
  O        39.2169364098       31.5748191739        22.654912310738
  O        20.3083152821        1.0395393972        22.491713352038
  O        38.0243504341       33.1853151613       10.4154032148
  O        39.2178581504       31.5826359783        9.3277408152
  O        40.6521048828       33.7690593787       10.0601668690
  O        18.2556593388        1.3762928083        7.9967920195
  O        44.6222183976       35.1005353323        22.748623712938
  O        24.2054674087       -0.0000873571        9.3207917653
  O        22.7531073834        2.0567486330       10.5830490321
  O        21.6243647838        3.5956617274        9.3421241961
  O        27.4582436841       18.6918928269        21.474650157038
  O        26.6898649035       16.9181924437        22.660047987738
  O        30.6295023639       19.3490837956        23.983984849138
  O        33.5411173898       16.3304146834        21.645284787938
  O        34.2678650315       18.1807954166        22.731979203638
  O        29.5326744903       17.0149848852        22.564022076638
  O        33.5856073681       16.2670131109       10.4148211851
  O        34.2664564980       18.1795022312        9.4021135907
  O        31.6518548531       18.3197309339       10.0912426837
  O        30.2899161060       15.1058353980        8.0728220041
  O        28.5513045236       21.0239666310        22.806763018638
  O        28.5104810958       20.9551741184        9.3286748797
  O        27.4591926382       18.6792223345       10.6592975747
  O        26.6905598335       16.9298717245        9.4185378410
  O        13.1469416394       18.6936265480       10.5862585120
  O        13.9179156601       16.9158594484        9.4039010734
  O        50.5957701939       19.3502664533        8.0206590217
  O        47.6821946230       16.3274027704       10.4176579072
  O        46.9507392308       18.1758059329        9.3251345754
  O        11.0689954956       17.0158958240        9.4895860223
  O        47.6744171608       16.3359301674        21.642493109838
  O        46.9247859075       18.2358664892        22.652960236238
  O        49.5686454529       18.3178039676        21.972050995338
  O        10.3186778984       15.1001825166        7.9971118069
  O        52.6707300024       21.0280246255        9.2418142279
  O        12.1468091225       20.8914185935        22.663125444438
  O        13.1047231905       18.6143032282        21.316054296038
  O        13.9553852582       16.9865591257        22.655105706738
  O        30.0020163205       14.4411165787       10.6697182828
  O        28.0762821651       14.6556081807        9.4905384398
  O        32.0707257029       16.8503622456        8.0592188269
  O        30.9569306329       20.9531058154       10.3321759725
  O        32.9568768561       20.5888252727        9.3244463796
  O        29.5670545398       17.0691155533        9.5768828751
  O        30.8565626011       20.8757338513        21.576626829238
  O        32.8568696161       20.5848803872        22.643398813738
  O        31.6125478092       18.2404907091        21.904800003138
  O        28.2534050156       18.6323553543        8.0602031345
  O        32.4914969512       14.2106988562        9.2475755356
  O        32.4004106878       14.2121749602        22.734140030238
  O        29.8366785583       14.4333396494        21.476083227338
  O        27.9594004422       14.5842848899        22.741800395538
  O        17.8891960381        1.9665176658       10.6628185287
  O        18.9561304659        3.5271409921        9.4080894589
  O        39.1684988773       34.1385579483        7.9971958282
  O        43.2801551917       33.0587793959       10.3316760269
  O        42.0342607581       31.5064383487        9.2415458374
  O        20.3173635267        1.0362744896        9.4803119669
  O        43.2761012066       33.1824654448        21.564689572338
  O        42.0052093558       31.5840949484        22.572836795238
  O        40.5790137508       33.7749739195        21.925818352838
  O        22.3671027723        1.3843167119        7.9980647908
  O        36.6727598761       35.0997707386        9.2332656202
  O        16.4455982978        0.0641568538        22.658047724138
  O        17.9363799484        2.0431866630        21.316199777038
  O        18.9188812782        3.5931341903        22.655664416238
  O        29.6593841032       18.8255990302        19.994155873838
  O        29.7039645490       19.0456440851       11.9995290547
  O        31.1783734531       16.1930256714        20.063031053538
  O        31.5080365007       16.3491065292       12.0756630078
  O        39.4568537285       35.2437154307        19.991796624438
  O        19.1413482468        0.0044636563       11.9905498517
  O        41.9694543957       35.1726597456        20.076968469538
  O        21.6912750115       -0.0694033919       11.8959891164
  O        51.3648814456       18.6143815302        19.995056044738
  O        10.7509243917       18.7471874692       11.9050184223
  O        50.0793476948       16.4127102157        20.081528695838
  O         9.5245035935       16.4831462092       11.9911799509
 Zr         9.2967636800       16.0529428243        22.172033913338
 Zr        49.8362829931       16.0069079002        9.7465431114
 Zr        22.0731133763        0.0293256833        22.179165961338
 Zr        42.4607956775       35.1531705660        9.8010427763
 Zr        29.5544534056       19.0525021651        22.200194500838
 Zr        29.5696347834       19.1851758732        9.8042786684
 Zr        11.0376642970       19.0523688674        9.8278139587
 Zr        11.0435091232       19.1552132567        22.240904486338
 Zr        31.3365764735       16.0786051229        9.8449337091
 Zr        31.3480268828       15.9906891264        22.238320576638
 Zr        18.6009320612       -0.0017804224        9.7635851755
 Zr        18.5064799353       -0.0080466143        22.203314759738
 Zr        12.3012541627       16.3232982723        23.980273418938
 Zr        48.6161227548       18.8329978951        8.0100116885
 Zr        20.3146470591        2.4730230180        23.980671437938
 Zr        40.6426653717       32.6865383554        23.967940812238
 Zr        28.3208636496       16.3231721872        8.0811623101
 Zr        32.5986338504       18.8276727899        8.0185348874
