     560
 i =       87, E =     -4677.7367913941
  C        11.8585413665       14.0534006222        21.731322898638
  C        12.4559162737       12.8903855150        21.013039359938
  C        11.7042333212       12.1716389852        20.071235328738
  C        12.2805049573       11.1093587549        19.378905852538
  C        13.6210009571       10.7393032908        19.606744988038
  C        14.3541387146       11.4426718994        20.580401052838
  C        13.7813352672       12.5076921616        21.271917688738
  C        14.2604325984        9.6485798546        18.833344987838
  C        14.2555064107        9.6563759848        17.411639353638
  C        13.7423202942       10.7584710278        16.657708647338
  C        49.1265477832       21.2334773270        21.869547333238
  C        48.5496897746       22.4012963301        21.142486511938
  C        49.2996971831       23.0685393345        20.161406808238
  C        48.7327282473       24.1075862877        19.428139418338
  C        47.4022058766       24.5092601234        19.656818892038
  C        46.6712957902       23.8604921134        20.670437625038
  C        47.2337687392       22.8156496050        21.399852866538
  C        46.7719684453       25.5869073420        18.859513113338
  C        46.7609888821       25.5572602099        17.437760557538
  C        47.2608911386       24.4421440089        16.694281786538
  C        14.8593297239        8.5699741965        16.698365957938
  C        14.8913074325        8.5966687795        19.509978524238
  C        49.1128657210       21.2034274481       10.1453771117
  C        48.5274914115       22.3648058453       10.8724166003
  C        49.2666165736       23.0253016561       11.8655614547
  C        48.6902852257       24.0598523110       12.5970101650
  C        47.3599504877       24.4568015583       12.3585925874
  C        46.6396811223       23.8121522676       11.3347902289
  C        47.2132311943       22.7762499605       10.6029963297
  C        46.7214813291       25.5317148824       13.1496380486
  C        46.7332108989       25.5280470219       14.5713337725
  C        47.2486121172       24.4288247418       15.3277269300
  C        40.6206431060       17.0985331810       15.3133295684
  C        40.6364114130       17.1474049438       12.5029138053
  C        11.8826813176       14.0862446905       10.2854114443
  C        12.4716831767       12.9102322568       10.9895159781
  C        11.7141109776       12.1774701023       11.9159344561
  C        12.2804301804       11.0948946902       12.5843782263
  C        13.6190425661       10.7205636320       12.3522689836
  C        14.3570003955       11.4356034951       11.3910416643
  C        13.7918347887       12.5168842437       10.7183122508
  C        14.2524987368        9.6237833611       13.1227409947
  C        14.2513086582        9.6438297152       14.5445842475
  C        13.7415975462       10.7528474850       15.2916622390
  C        22.5057747079        3.2427551461        21.738023345638
  C        23.2078383111        4.3462915684        21.025306366938
  C        24.2050416827        4.0643666062        20.080153812638
  C        24.8246516234        5.1022528983        19.389480579138
  C        24.4612111302        6.4430794116        19.623809538038
  C        23.4887944454        6.7166477854        20.602781539038
  C        22.8654923293        5.6807540244        21.292734238638
  C        25.0687816384        7.5485899104        18.850219515638
  C        25.0636671899        7.5378496775        17.429065848238
  C        24.3732075626        6.5361173336        16.676038258238
  C        38.3014071966       31.9260364465        21.837174330538
  C        37.5691504194       30.8360220744        21.126826630038
  C        36.6065751826       31.1409700012        20.151765290838
  C        35.9834875860       30.1224665770        19.434911701638
  C        36.3064113867       28.7711735124        19.669585195738
  C        37.2403422682       28.4737069325        20.680444133938
  C        37.8675016126       29.4911193401        21.396511311438
  C        35.6963753664       27.6810422358        18.871926420538
  C        35.7253774191       27.6965957825        17.449622016438
  C        36.4313311246       28.6983315617        16.711638052838
  C        25.6966885750        8.6068425839        16.716694407738
  C        25.6502243847        8.6273739364        19.527460358538
  C        38.3263600062       31.9604621186       10.1562368575
  C        37.5999515008       30.8870929795       10.8959362985
  C        36.6681691018       31.1963624884       11.8989974834
  C        36.0521466711       30.1788769646       12.6257189584
  C        36.3523485748       28.8248231825       12.3742940416
  C        37.2617840414       28.5256093857       11.3409525016
  C        37.8798737352       29.5396889953       10.6152144201
  C        35.7390002758       27.7264526602       13.1581015676
  C        35.7468508492       27.7199297359       14.5808372688
  C        36.4408203944       28.7100282623       15.3449366115
  C        46.1352183370       26.6206926151       15.2814602167
  C        46.0875415011       26.5800720542       12.4735781371
  C        22.4660204073        3.2544268952       10.2524369384
  C        23.1740935110        4.3606798199       10.9641323643
  C        24.1858404345        4.0697755705       11.8930475322
  C        24.8259195240        5.0972137591       12.5814650213
  C        24.4736994149        6.4439622916       12.3634852569
  C        23.4865187611        6.7283205266       11.4014103449
  C        22.8422011045        5.7011436432       10.7127327064
  C        25.1072103120        7.5379992378       13.1406639624
  C        25.0840445142        7.5316967712       14.5627192975
  C        24.3800272260        6.5351712626       15.3098294899
  C        26.5440032618       17.8526567219        21.784128059838
  C        25.2426635032       17.9021826453        21.058945560638
  C        24.9857860052       18.9147798503        20.121535541738
  C        23.7819199938       18.9355394705        19.422913169038
  C        22.8017602386       17.9482239182        19.644141003238
  C        23.0525159481       16.9590535010        20.613219475538
  C        24.2592703862       16.9320894490        21.308814602638
  C        21.5386252193       17.9390893504        18.869655507038
  C        21.5497720426       17.9389575615        17.447981854938
  C        22.7614440809       17.8340866918        16.694488536638
  C        34.4149396507       17.2199954129        21.876285553438
  C        35.7153693443       17.1567239407        21.148591957838
  C        35.9105544816       16.1911788386        20.148496087138
  C        37.0963725917       16.1624204308        19.420726181538
  C        38.1170404948       17.1010840742        19.668356177938
  C        37.9246330140       18.0454770599        20.695185506838
  C        36.7377693760       18.0770652350        21.424213860938
  C        39.3706749967       17.1030164093        18.880404703538
  C        39.3645701694       17.1122543284        17.457819206438
  C        38.1566742801       17.2286915335        16.699868324738
  C        20.3071241057       17.9608930308        16.734299445738
  C        20.3125843640       17.9293928377        19.546435950538
  C        34.4514290170       17.1898631101       10.1727621263
  C        35.7542911342       17.1204936405       10.8946956365
  C        35.9912430537       16.1214000137       11.8517321870
  C        37.1756372562       16.1151726780       12.5835921954
  C        38.1571633942       17.1031250748       12.3738688494
  C        37.9288622029       18.0765521055       11.3829875773
  C        36.7402908885       18.0911463451       10.6575949284
  C        39.4060742450       17.1246416141       13.1690024677
  C        39.3830032408       17.1222813953       14.5903729081
  C        38.1652077547       17.2295863962       15.3330944693
  C        35.1144407485       26.6414315604       15.2848611898
  C        35.1472647806       26.6560216142       12.4751820597
  C        26.5638334254       17.8284403160       10.3255533203
  C        25.2506343458       17.8853493264       11.0261263574
  C        24.9727178798       18.9210197913       11.9311362046
  C        23.7550540862       18.9535993893       12.6042356414
  C        22.7870580870       17.9527622366       12.3917436139
  C        23.0574958129       16.9422295738       11.4516165062
  C        24.2763766594       16.9059316533       10.7784084781
  C        21.5220516057       17.9433627915       13.1613269643
  C        21.5406021065       17.9421999914       14.5821535814
  C        22.7571551771       17.8370507345       15.3282515759
  C        14.0448385954       17.8325918504       10.2831408492
  C        15.3512977191       17.8993764328       10.9991087640
  C        15.6098040833       18.9166003145       11.9305245782
  C        16.8206707411       18.9462966956       12.6180879074
  C        17.8033715270       17.9614621528       12.3947216045
  C        17.5507036953       16.9693976734       11.4292862554
  C        16.3394105426       16.9355308763       10.7427612912
  C        19.0688235128       17.9495563238       13.1655148881
  C        19.0593684088       17.9487811810       14.5868474857
  C        17.8473301471       17.8484650700       15.3399481041
  C        46.8037789994       17.2187781145       10.1586829472
  C        45.5121871677       17.1563853003       10.9026350387
  C        45.3031773880       16.1760689133       11.8850635104
  C        44.1198302782       16.1566764280       12.6186683351
  C        43.1150773009       17.1180505893       12.3930972330
  C        43.3214838001       18.0781497985       11.3839817833
  C        44.5053494620       18.1010348534       10.6507648952
  C        41.8611299872       17.1268349677       13.1812352633
  C        41.8669110625       17.1169598522       14.6035131946
  C        43.0760838523       17.2089213181       15.3623904732
  C        20.3020930736       17.9611730645       15.3006203245
  C        20.2946462437       17.9265802072       12.4882786244
  C        46.7834358004       17.2309790463        21.877703173038
  C        45.4800666618       17.1226264483        21.160883698138
  C        45.2631757456       16.1219423583        20.201205441738
  C        44.0752425396       16.0907427292        19.474457350538
  C        43.0733026379       17.0570986216        19.689659556638
  C        43.2806973192       18.0277502940        20.687771429438
  C        44.4697951984       18.0652901719        21.409677105738
  C        41.8260537154       17.0750650780        18.892569138038
  C        41.8491073669       17.0886177762        17.471219463838
  C        43.0675439568       17.1927642166        16.728999184138
  C        46.1529956047       26.6371332249        16.716000147338
  C        46.1620542741       26.6560464120        19.525630632938
  C        14.0388443000       17.8287293126        21.696332952138
  C        15.3515971119       17.8988573730        20.995121467338
  C        15.6196671470       18.9227527942        20.074777280838
  C        16.8421467214       18.9606073255        19.409584401138
  C        17.8202241996       17.9734654922        19.641040173338
  C        17.5580849326       16.9757915692        20.596953421538
  C        16.3378845036       16.9377258049        21.266091232138
  C        19.0854168163       17.9567798658        18.873104467338
  C        19.0682188433       17.9513262362        17.452295410138
  C        17.8516913961       17.8498257299        16.705864952038
  C        28.7944530302       14.1162612882       10.3948021860
  C        28.2057353408       12.9299727309       11.0755173834
  C        28.9361792221       12.2070762987       12.0301368533
  C        28.3533122198       11.1187979149       12.6751838471
  C        27.0266928885       10.7340491815       12.3930660852
  C        26.3208467385       11.4374575460       11.4002035666
  C        26.9014550535       12.5228241046       10.7508200496
  C        26.3626247483        9.6487532859       13.1504833084
  C        26.3336000749        9.6762431374       14.5712688297
  C        26.8264738659       10.7905731771       15.3217350987
  C        32.1773781272       21.2399469422       10.1050142911
  C        32.7616727120       22.4028303433       10.8349404626
  C        32.0136814067       23.0584634869       11.8256132678
  C        32.5782913904       24.0968222178       12.5614216195
  C        33.9057555479       24.5082989219       12.3299796786
  C        34.6353933962       23.8681934429       11.3094856871
  C        34.0747310329       22.8247884234       10.5754081938
  C        34.5306789242       25.5853766174       13.1336243809
  C        34.5227491474       25.5573031555       14.5560887750
  C        34.0174215714       24.4413936669       15.2950755308
  C        25.7134635490        8.5993224288       15.2828787423
  C        25.7321681687        8.5978896184       12.4709272880
  C        32.0738838674       21.1903416355        21.830945414538
  C        32.6559899675       22.3549262964        21.098626318438
  C        31.9313857451       23.0032034787        20.086160406438
  C        32.5093743381       24.0449040831        19.363274796838
  C        33.8275420131       24.4672157775        19.629065255238
  C        34.5328003906       23.8326786473        20.670147682838
  C        33.9589145535       22.7890319233        21.391631954638
  C        34.4722290540       25.5493963725        18.847637093838
  C        34.4928058740       25.5393492536        17.424827019738
  C        34.0021496332       24.4333128983        16.661704433538
  C        40.6109583424       17.0883034026        16.748259245238
  C        40.5954340465       17.1002328548        19.558220695338
  C        28.6589542484       14.0615495631        21.811169406238
  C        28.0557380976       12.9167439281        21.071157993938
  C        28.8103217577       12.2065511653        20.124586186338
  C        28.2380864607       11.1523687371        19.418480339338
  C        26.8969912784       10.7802673157        19.637231217438
  C        26.1591515252       11.4752380416        20.613665696138
  C        26.7291816998       12.5320763246        21.320382661338
  C        26.2697775627        9.6885221598        18.856669338338
  C        26.2873641834        9.6970438174        17.435487461438
  C        26.8022738506       10.8016267470        16.687157241938
  C        18.1352681014        3.1808513663       10.3171319027
  C        17.4056578080        4.2779647921       11.0156697896
  C        16.3897568342        3.9993353927       11.9428995526
  C        15.7417567859        5.0391298816       12.6064214198
  C        16.0935427623        6.3829161813       12.3669755876
  C        17.0830820369        6.6527174331       11.4034554477
  C        17.7324391388        5.6155533801       10.7383773441
  C        15.4689894594        7.4904758727       13.1300544514
  C        15.4842964643        7.4898227978       14.5517737113
  C        16.1859148314        6.4962407667       15.3049241161
  C        42.9456865596       31.8594275299       10.0728535402
  C        43.6460100690       30.7717105584       10.8167904505
  C        44.5916441921       31.0930397518       11.8027471267
  C        45.1972956360       30.0875029219       12.5504490896
  C        44.8707610044       28.7344646612       12.3356495939
  C        43.9448514537       28.4201169249       11.3225256290
  C        43.3360827281       29.4252537596       10.5744465812
  C        45.4883245511       27.6551754195       13.1388490892
  C        45.4925083974       27.6808183178       14.5605391636
  C        44.8054567632       28.6888977380       15.3071507596
  C        14.8553604763        8.5623412176       15.2641357025
  C        14.8736524234        8.5622006753       12.4514660447
  C        42.9463366594       31.9615087808        21.798730869538
  C        43.6915346121       30.8853567650        21.085258572338
  C        44.6562953245       31.1912776969        20.113141073838
  C        45.2777311308       30.1716973637        19.395342151038
  C        44.9537533221       28.8214116243        19.632833559638
  C        44.0200662729       28.5237246459        20.643407477838
  C        43.3918949001       29.5404902856        21.355654028138
  C        45.5627452438       27.7240098540        18.847566177538
  C        45.5330545460       27.7173138830        17.426274449738
  C        44.8267440084       28.7075529275        16.673328194038
  C        35.1016002530       26.6309175323        16.720622874738
  C        35.0863617387       26.6071341090        19.531190299438
  C        18.1485554598        3.2467819517        21.696360444338
  C        17.4298196603        4.3435776563        20.987038456638
  C        16.4144906826        4.0522325809        20.063633511238
  C        15.7660192829        5.0828117328        19.388295071838
  C        16.1207220243        6.4280670871        19.610819866338
  C        17.1122516705        6.7115327813        20.567895763438
  C        17.7600438247        5.6826703685        21.247632746638
  C        15.4900566099        7.5236924637        18.838387504338
  C        15.4956840442        7.5069380433        17.417245746338
  C        16.1923218494        6.5051666894        16.670526985138
  H        10.6721697746       12.4659447996        19.894108906038
  H        11.6941797834       10.5509807293        18.652314412938
  H        15.3910830430       11.1678414467        20.762287822038
  H        14.3507663260       13.0706788468        22.007569750538
  H        13.3754524072       11.6306773827        17.190981356038
  H        50.3223866901       22.7484592638        19.976643978938
  H        49.3191614086       24.6227991217        18.670486311238
  H        45.6418265271       24.1613248042        20.853640251338
  H        46.6627806844       22.2904658145        22.162005202238
  H        47.6293766047       23.5757435792        17.235968807438
  H        14.8718246160        8.5879803002        20.598290290638
  H        50.2865935303       22.7023029255       12.0606017542
  H        49.2685890794       24.5751465962       13.3606897489
  H        45.6103625222       24.1095869971       11.1455495235
  H        46.6525099900       22.2543259886        9.8311904842
  H        47.6073299596       23.5516621737       14.7968580849
  H        40.6418058640       17.1248520048       11.4148041290
  H        48.6870170168       14.0950467086        23.789797826538
  H        10.6808106742       12.4670003084       12.0935834058
  H        11.6885735517       10.5248092949       13.2972701849
  H        15.3922498314       11.1572232918       11.2048239325
  H        14.3642127958       13.0858591256        9.9895012112
  H        13.3747934791       11.6214757847       14.7530359910
  H        47.9301193990       14.2181467165        9.7109025708
  H        47.7799472553       14.3737048062        22.485080317638
  H        49.0828584265       18.5523144094       10.8671780666
  H        10.4158548956       14.1342753759        7.9988185796
  H        24.4733314453        3.0259400588        19.899075316338
  H        25.6005930703        4.8848505893        18.658707862938
  H        23.2007784251        7.7493404918        20.788114160938
  H        22.0941156710        5.8810979429        22.032263432538
  H        23.8056396789        5.7798586831        17.210469838838
  H        36.3705477380       32.1845845556        19.957432687538
  H        35.2370301994       30.3654830115        18.681854856238
  H        37.4994396597       27.4341468588        20.870542020338
  H        38.6129502307       29.2662267649        22.155735318438
  H        36.9972743121       29.4477873181        17.257246976038
  H        25.6675218578        8.6137454377        20.615708610038
  H        36.4470742551       32.2408194633       12.1070996366
  H        35.3246001366       30.4264120959       13.3955765853
  H        37.5068517318       27.4850566646       11.1384596344
  H        38.6038634615       29.3114341159        9.8367330393
  H        37.0150561968       29.4680567166       14.8200897789
  H        46.1089456568       26.5874874746       11.3855423075
  H        44.6682339706       35.1161487161        23.803903792938
  H        24.4596588523        3.0301508468       12.0577829841
  H        25.6122655847        4.8657634330       13.2967894065
  H        23.2038645466        7.7641561673       11.2249770422
  H        22.0634384455        5.9168670111        9.9848651236
  H        23.8169781346        5.7786801892       14.7710697588
  H        44.9536576777       34.3899393759        9.6947713453
  H        44.9018726851       34.2068453896        22.480493460038
  H        40.6650576495       33.2083125377       10.8527643678
  H        23.1501880257        1.9577284465        8.0029825191
  H        25.7395034173       19.6809839555        19.956258351438
  H        23.5845102946       19.7242703269        18.700179026138
  H        22.3033519055       16.1898934372        20.789331160938
  H        24.4692543022       16.1555909082        22.040659983838
  H        23.7007003434       17.7186335598        17.227679915338
  H        35.1128988289       15.4798422756        19.947463999938
  H        37.2459052942       15.4053607184        18.654111170638
  H        38.7043114635       18.7786751368        20.891096369138
  H        36.5738741589       18.8218993016        22.199589076838
  H        37.2161361499       17.3496582146        17.229724613338
  H        20.3141476651       17.9541094418        20.634672007938
  H        35.2338329899       15.3589182612       12.0182432926
  H        37.3548816010       15.3390676506       13.3244739004
  H        38.6799834792       18.8457738604       11.2156116091
  H        36.5431802428       18.8609407523        9.9151050512
  H        37.2312274823       17.3490535436       14.7912991560
  H        35.1208188606       26.6824423438       11.3874253609
  H        28.5075310073       21.0919748479        23.867991619238
  H        25.7210539087       19.6940267840       12.0895984799
  H        23.5389296191       19.7577904001       13.3042653992
  H        22.3160934651       16.1637555080       11.2838981300
  H        24.5031138367       16.1140225498       10.0685958765
  H        23.6931305831       17.7250541487       14.7887942933
  H        28.9591307553       21.7340106054        9.7118484807
  H        29.1852006435       21.7113091827        22.513330592138
  H        32.2135466462       18.6621554905       10.8665033677
  H        27.3526597716       19.0675008031        8.0731255982
  H        14.8508342382       19.6768824172       12.1005665096
  H        17.0201968056       19.7387077013       13.3362634057
  H        18.3016090657       16.2025865350       11.2503618285
  H        16.1288848509       16.1572527763       10.0131705918
  H        16.9079511272       17.7367535088       14.8065208690
  H        46.0850793283       15.4425003834       12.0670531504
  H        43.9590262434       15.3884267932       13.3718029962
  H        42.5547746455       18.8291278459       11.2049309524
  H        44.6802109161       18.8566844668        9.8884701642
  H        44.0174949775       17.3259232716       14.8333069273
  H        20.2934059360       17.9484152253       11.3999809850
  H        46.0413949747       15.3825935769        20.026062521138
  H        43.9110602454       15.3136072596        18.731133800738
  H        42.5127710826       18.7787266614        20.861331085938
  H        44.6497859353       18.8339657329        22.157269733538
  H        44.0025679317       17.2958735022        17.272048000138
  H        46.1988689115       26.6826043323        20.613076490938
  H        52.7411532434       21.0626453354        8.1945888902
  H        14.8608452518       19.6821168974        19.899737160938
  H        17.0536494259       19.7577899667        18.700208530638
  H        18.3072602526       16.2082504107        20.779746951438
  H        16.1172573457       16.1573333877        21.990283347138
  H        16.9156438286       17.7393686089        17.245156481938
  H        52.3222724667       21.6737014740        22.284648300338
  H        52.0134969883       21.7026139341        9.4954378488
  H        49.0671221918       18.6077406703        21.193990934738
  H        13.2471010650       19.0165673276        23.965702507738
  H        29.9543043278       12.5174190839       12.2552437261
  H        28.9201769346       10.5564523362       13.4139819035
  H        25.2962072834       11.1493312755       11.1746783290
  H        26.3533148610       13.0867725904       10.0002233392
  H        27.1969087701       11.6593899220       14.7860181594
  H        30.9955862535       22.7267236803       12.0163855363
  H        31.9917877885       24.6034672594       13.3247074654
  H        35.6629926570       24.1739523583       11.1238817912
  H        34.6460970789       22.3078269312        9.8078563741
  H        33.6664132827       23.5695998918       14.7503603129
  H        25.7713999071        8.5790281395       11.3831991008
  H        30.9197256267       22.6676628899        19.868982487038
  H        31.9385165059       24.5472582538        18.585399799038
  H        35.5530964065       24.1447414109        20.883454689338
  H        34.5121831996       22.2789056152        22.176556735238
  H        33.6394451628       23.5550289139        17.188059957338
  H        40.5894029445       17.0648949784        20.645988870338
  H        32.5172183964       14.1452897492        8.1708714614
  H        29.8479960380       12.4886857363        19.962349210238
  H        28.8290045848       10.5981497589        18.692540224138
  H        25.1215993760       11.1979541694        20.788228722138
  H        26.1574360158       13.0858910287        22.061324092238
  H        27.1531282843       11.6788184711        17.222968669038
  H        33.2894123293       14.2259070099        22.336733229238
  H        33.4054651534       14.3629105664        9.5404794133
  H        32.0701135005       18.4935494711        21.084913103338
  H        30.1810462275       14.1398676249        8.0721008389
  H        16.1178400662        2.9627641527       12.1291298893
  H        14.9521704604        4.8195413001       13.3218697006
  H        17.3654383153        7.6856524628       11.2105669476
  H        18.5146365049        5.8183955282       10.0107577132
  H        16.7523952316        5.7388637352       14.7714003396
  H        44.8279599793       32.1401188940       11.9768788027
  H        45.9372277483       30.3412342574       13.3063318015
  H        43.6820761418       27.3780573925       11.1524948003
  H        42.5993628832       29.1899474330        9.8098745738
  H        44.2301290269       29.4366642047       14.7688292297
  H        14.8499032328        8.5454088400       11.3632454001
  H        44.8999540880       32.2339546220        19.921829588238
  H        46.0247749335       30.4128962086        18.642234926738
  H        43.7629379885       27.4840090979        20.834808444138
  H        42.6452202256       29.3177370960        22.113938629338
  H        44.2682722775       29.4704562198        17.207916197238
  H        35.0432883579       26.6200380428        20.618687635038
  H        36.6051813788       35.1337952724        8.1807803037
  H        16.1433573002        3.0126383467        19.894077985938
  H        14.9735800437        4.8558796707        18.678361824738
  H        17.3958159198        7.7470112312        20.744621204538
  H        18.5429318861        5.8931895444        21.972362033738
  H        16.7638236480        5.7549657873        17.208943432238
  H        36.2786891467       34.4820032302        22.262990018738
  H        36.3808037165       34.2091639302        9.4999224712
  H        40.5797469881       33.2022878257        21.143609599338
  H        17.4709107040        1.9469724229        23.963788315038
  H        28.6861050035       19.0763932808       12.3486216352
  H        28.6682180216       18.8970012550        19.683399633638
  H        30.6971145515       15.3189321540        19.849298251738
  H        32.5264357065       16.3071411328       12.3012316549
  H        18.8535810061        0.8689471306       12.3352479329
  H        40.5282639284       35.2290176040        19.941939456838
  H        42.3237707913       34.4189171611        19.580135432138
  H        22.0874393222        0.6921279137       12.3516328926
  H        11.5965901398       18.7128749726       12.3826481668
  H        52.2645332331       18.4314010413        19.667141551338
  H        49.2552034314       16.4764281222        19.573913929738
  H        10.1503066919       15.7982746165       12.2926097817
  H        50.8497850369       17.6926103817        19.943798799038
  H        10.0460210261       17.3947279782       12.0519361354
  H        20.2149245747        0.0020506196       12.0419777052
  H        39.1836243899       36.1243485866        19.676359217938
 Ni        30.4799297158       17.5037370498        18.904090743438
 Ni        30.6498661009       17.3561343368       14.904948158938
 Ni        31.1945964781       18.3585830031        16.906857205238
 Ni        30.6103065745       17.7127248900       12.5812593934
  O        10.6497890832       14.3651976982        21.475584299338
  O        12.6130324155       14.6574065581        22.573626521638
  O        49.1477044316       16.8459401886        23.979489964038
  O        50.3500590316       20.9363691606        21.638031790638
  O        48.3484522364       20.5932790610        22.655725974138
  O        11.0508519726       17.0540765974        22.490420480838
  O        50.3206926258       20.8817165590       10.4068806045
  O        48.3466080390       20.5866900351        9.3270259838
  O        49.5434146392       18.2484433990       10.0683334523
  O        12.3587685050       18.6246611499        7.9996865006
  O        48.6931737939       14.1486136210        22.741080322938
  O         8.2098187480       14.2104730863        9.3225645016
  O        10.7352044345       14.5067477773       10.6643545276
  O        12.5716889845       14.5827015619        9.3285854641
  O        22.8441885050        2.0421449221        21.477217494438
  O        21.6045927744        3.5917588615        22.579683140438
  O        42.0579141016       34.1370666682        23.968861857038
  O        37.9812536378       33.1347865901        21.561657929038
  O        39.2175322496       31.5748226016        22.655340831338
  O        20.3082709557        1.0395138049        22.491738950738
  O        38.0240900653       33.1847495376       10.4155855504
  O        39.2181860835       31.5828631816        9.3273568488
  O        40.6521268425       33.7690793545       10.0601890720
  O        18.2557617892        1.3760317215        7.9967611575
  O        44.6222093532       35.1005443229        22.748625310438
  O        24.2054831686       -0.0001011147        9.3207774278
  O        22.7529920043        2.0563610503       10.5830177349
  O        21.6246410839        3.5958191542        9.3425545215
  O        27.4182952250       18.7490875295        21.488320963938
  O        26.6920824201       16.9288447147        22.652192881538
  O        30.6291453188       19.3470024108        8.0009196575
  O        33.5395766042       16.3402331236        21.583696992538
  O        34.2647191907       18.1715666293        22.725866552638
  O        29.5277672123       17.0204383744        22.564039972338
  O        33.5890224353       16.2669719325       10.4109078205
  O        34.2632194446       18.1824455741        9.4004392382
  O        31.6446908024       18.3173038766       10.1569509602
  O        30.2899427592       15.1046602655        8.0780384581
  O        28.5525334134       21.0302075259        22.806987219538
  O        28.5093179364       20.9610219058        9.3298152799
  O        27.4576359767       18.6793416475       10.6584558748
  O        26.6899138026       16.9306328033        9.4178191530
  O        13.1460728407       18.6939450584       10.5859851165
  O        13.9177460532       16.9159346692        9.4039396526
  O        50.5957457873       19.3503262244        8.0206306999
  O        47.6822797194       16.3273725823       10.4175486834
  O        46.9512785765       18.1759513523        9.3247376210
  O        11.0688833469       17.0159232801        9.4896122827
  O        47.6748788090       16.3358490386        21.642628894938
  O        46.9251228902       18.2358284406        22.653052138038
  O        49.5686780968       18.3177739600        21.971980384338
  O        10.3186293008       15.1001397615        7.9970880974
  O        52.6706882025       21.0280365059        9.2418069149
  O        12.1468042035       20.8914587470        22.663128221938
  O        13.1038851371       18.6144761542        21.316299858838
  O        13.9551057580       16.9865143945        22.655242070038
  O        29.9617204737       14.5081889731       10.7381098295
  O        28.0747783199       14.6584328677        9.4877197455
  O        32.0706664030       16.8524024024        8.0661788647
  O        30.9560982727       20.9536446827       10.3311631817
  O        32.9560035314       20.5859215905        9.3239700882
  O        29.5690781716       17.0771625045        9.5765479882
  O        30.8550093901       20.8749059832        21.576101620438
  O        32.8550023108       20.5821210568        22.643992316338
  O        31.6042095108       18.2389546518        21.899923980638
  O        28.2384988834       18.6700099774        8.0648752424
  O        32.4893718750       14.2087517191        9.2467907480
  O        32.4028150182       14.2145326911        22.735021526238
  O        29.8354770689       14.4328114589        21.479570629938
  O        27.9586055665       14.5865441246        22.743985828138
  O        17.8892099465        1.9665059040       10.6628088059
  O        18.9561628228        3.5271302597        9.4080603815
  O        39.1685080752       34.1385679235        7.9971610317
  O        43.2801707663       33.0587922492       10.3316870500
  O        42.0343305099       31.5064261104        9.2415635401
  O        20.3173932884        1.0363457567        9.4802828213
  O        43.2760973032       33.1824493557        21.564705883538
  O        42.0051842397       31.5841585862        22.572823459038
  O        40.5790168825       33.7749929453        21.925721989738
  O        22.3671387154        1.3843987313        7.9980539470
  O        36.6727735250       35.0997199568        9.2333487849
  O        16.4456617682        0.0639526562        22.657929894438
  O        17.9363834304        2.0431593168        21.316238574538
  O        18.9188855454        3.5931261186        22.655699322838
  O        29.5874922517       18.8284157518        19.999449422638
  O        29.6140275775       19.1949247753       12.0684349109
  O        31.2160356870       16.1197775329        20.064573744138
  O        31.5833172130       16.1997831039       12.0825343357
  O        39.4568596792       35.2437144281        19.991803858738
  O        19.1414492466        0.0044613660       11.9905358948
  O        41.9694998854       35.1727041662        20.076968512138
  O        21.6912447361       -0.0694337423       11.8960410267
  O        51.3646228553       18.6143888160        19.995018237538
  O        10.7508393172       18.7472314842       11.9050661588
  O        50.0794788811       16.4127220897        20.081494217838
  O         9.5243841346       16.4831225934       11.9911902750
 Zr         9.2966521294       16.0528501425        22.172000427138
 Zr        49.8361625738       16.0069093230        9.7465911492
 Zr        22.0732189246        0.0295793494        22.179107564638
 Zr        42.4608517915       35.1532697217        9.8010786358
 Zr        29.5443836384       19.0595426052        22.211640314738
 Zr        29.5569834323       19.2035591256        9.8164918770
 Zr        11.0373317797       19.0524376607        9.8277692037
 Zr        11.0432842872       19.1552331287        22.240940680638
 Zr        31.3427276256       16.0620943207        9.8542547469
 Zr        31.3510576040       15.9930697637        22.244955803638
 Zr        18.6011269913       -0.0017489410        9.7636062258
 Zr        18.5064977813       -0.0082864129        22.203299726938
 Zr        12.3008450023       16.3232373107        23.980329183138
 Zr        48.6161222405       18.8330085061        8.0099520747
 Zr        20.3149394762        2.4732070679        23.980693360038
 Zr        40.6428662007       32.6866522825        23.968000496638
 Zr        28.3166804983       16.3303951061        8.0841013306
 Zr        32.6001593111       18.8268467757        8.0152630451
