     560
 i =      121, E =     -4677.7377335463
  C        11.8586575487       14.0535659558        21.731172102638
  C        12.4559279299       12.8903745236        21.013110013638
  C        11.7042651678       12.1717402381        20.071198510238
  C        12.2805208327       11.1094528022        19.378864744238
  C        13.6209916801       10.7393256973        19.606777235038
  C        14.3541214473       11.4426222837        20.580498089938
  C        13.7813334735       12.5076486962        21.272014313938
  C        14.2604096154        9.6486123167        18.833345562838
  C        14.2554943148        9.6564087455        17.411637095638
  C        13.7423056699       10.7585000184        16.657697536238
  C        49.1265903954       21.2334070340        21.869508338138
  C        48.5497607206       22.4012486758        21.142464737938
  C        49.2997639747       23.0685024259        20.161385009538
  C        48.7328066179       24.1075982090        19.428170247138
  C        47.4022658685       24.5092353927        19.656825843938
  C        46.6713622153       23.8604511459        20.670433140038
  C        47.2338230248       22.8155746067        21.399793526238
  C        46.7720233125       25.5868987072        18.859525668638
  C        46.7610269605       25.5572488896        17.437761876438
  C        47.2609744567       24.4421447452        16.694284338538
  C        14.8592954409        8.5699908537        16.698360011638
  C        14.8912834829        8.5966978130        19.509981865738
  C        49.1130341235       21.2036534667       10.1450505556
  C        48.5275332621       22.3647440112       10.8724368536
  C        49.2666774578       23.0252605355       11.8655503553
  C        48.6903580142       24.0598293758       12.5969897642
  C        47.3599825217       24.4567059139       12.3586417056
  C        46.6397248536       23.8121013213       11.3347954520
  C        47.2132777167       22.7761921265       10.6030177219
  C        46.7215480395       25.5316969897       13.1496247860
  C        46.7332547959       25.5280132227       14.5713248423
  C        47.2486830079       24.4288171033       15.3277296366
  C        40.6189466311       17.0963628341       15.3189461816
  C        40.6391903940       17.1507568657       12.5085519807
  C        11.8827932724       14.0863268953       10.2854544766
  C        12.4717430041       12.9102795249       10.9894818265
  C        11.7141652302       12.1775433357       11.9159351440
  C        12.2804553879       11.0949328426       12.5843365876
  C        13.6190637540       10.7205820705       12.3522420995
  C        14.3569999742       11.4355595224       11.3909540104
  C        13.7918821708       12.5168805171       10.7182569289
  C        14.2524851420        9.6237975954       13.1227231339
  C        14.2512987052        9.6438605861       14.5445674014
  C        13.7415863614       10.7528764996       15.2916490866
  C        22.5060032397        3.2428270493        21.738018184038
  C        23.2084714945        4.3462034927        21.025341492138
  C        24.2063067876        4.0639221502        20.080944091138
  C        24.8268894835        5.1015217474        19.390712696938
  C        24.4639846979        6.4425686920        19.624710784438
  C        23.4906783264        6.7165060367        20.602695864538
  C        22.8664239772        5.6808545521        21.292273094538
  C        25.0724107616        7.5475538775        18.850821941138
  C        25.0662291429        7.5366128264        17.429702444438
  C        24.3746383263        6.5349209626        16.677674431738
  C        38.3011458974       31.9263978106        21.837678210038
  C        37.5680477260       30.8368096864        21.127935472038
  C        36.6049798564       31.1425364914        20.153648423038
  C        35.9808828137       30.1245048703        19.437171033938
  C        36.3033510707       28.7731092570        19.671588015638
  C        37.2378421675       28.4748396286        20.681675911938
  C        37.8659759015       29.4918170882        21.397445787538
  C        35.6920923478       27.6836968267        18.874215316338
  C        35.7199496473       27.6994813219        17.451945880138
  C        36.4267204948       28.7005205628        16.713887442538
  C        25.6996042627        8.6049633248        16.716595149038
  C        25.6553232591        8.6260385850        19.527227857638
  C        38.3263463366       31.9603616692       10.1568032833
  C        37.5994472156       30.8876673112       10.8974959476
  C        36.6677965022       31.1983661817       11.9003427230
  C        36.0501436947       30.1820581878       12.6274159895
  C        36.3480850301       28.8273769816       12.3765343929
  C        37.2579758807       28.5267605283       11.3439429584
  C        37.8777926033       29.5396973815       10.6179039687
  C        35.7325907162       27.7299636770       13.1603659124
  C        35.7399315671       27.7234805780       14.5831571842
  C        36.4354667812       28.7125470846       15.3472068413
  C        46.1352469725       26.6206544858       15.2814495526
  C        46.0875501128       26.5800264539       12.4735621890
  C        22.4657479648        3.2542858944       10.2520921904
  C        23.1728831910        4.3603215004       10.9642529739
  C        24.1843781460        4.0690943623       11.8932679242
  C        24.8235450101        5.0963600711       12.5825461504
  C        24.4705039424        6.4428797255       12.3648707068
  C        23.4837727927        6.7275992837       11.4025095559
  C        22.8403676373        5.7005829751       10.7130064378
  C        25.1039117786        7.5366980580       13.1417608346
  C        25.0831009017        7.5302600131       14.5636898682
  C        24.3798204861        6.5338295232       15.3115065054
  C        26.5620412915       17.8256197582        21.776686856638
  C        25.2617834004       17.8916796758        21.050903136538
  C        25.0098842373       18.9076755116        20.115797770838
  C        23.8020190961       18.9402946823        19.423177325238
  C        22.8140644446       17.9603234333        19.644923663738
  C        23.0613108806       16.9675641997        20.611550743938
  C        24.2701158296       16.9299873253        21.302813281338
  C        21.5485978061       17.9565898637        18.872488878238
  C        21.5577614987       17.9567701329        17.450454375538
  C        22.7686256094       17.8530730249        16.695368102238
  C        34.4184982966       17.2157412093        21.902688556238
  C        35.7130050019       17.1458425343        21.165757383138
  C        35.9011298435       16.1838309035        20.160905065438
  C        37.0838353517       16.1561739546        19.426724891638
  C        38.1089340669       17.0905954661        19.673628986838
  C        37.9221852261       18.0320137965        20.704556828838
  C        36.7386051765       18.0640708716        21.438299451738
  C        39.3628891191       17.0927629592        18.884802977838
  C        39.3591195702       17.1051831881        17.462037465738
  C        38.1525961137       17.2233985158        16.702260054638
  C        20.3141177523       17.9753577452        16.737700768338
  C        20.3224471431       17.9438471600        19.550306759138
  C        34.4563063209       17.1907678369       10.1707337813
  C        35.7588223384       17.1226223853       10.8932180963
  C        35.9988049392       16.1194786813       11.8453919831
  C        37.1819086570       16.1141754482       12.5792522298
  C        38.1601648020       17.1065338783       12.3756535671
  C        37.9296683744       18.0837225074       11.3890725907
  C        36.7417902762       18.0977765032       10.6622605579
  C        39.4079035097       17.1274920827       13.1728038622
  C        39.3824098737       17.1219899872       14.5941959490
  C        38.1634316630       17.2277940814       15.3353653675
  C        35.1062167045       26.6456424121       15.2872533133
  C        35.1400688283       26.6597999587       12.4775869553
  C        26.5670182147       17.8285211635       10.3257974503
  C        25.2537891368       17.8882669974       11.0268820422
  C        24.9781873070       18.9243611148       11.9320708654
  C        23.7602234356       18.9598497132       12.6046099898
  C        22.7899575638       17.9610637774       12.3923796280
  C        23.0584414325       16.9500314359       11.4521611559
  C        24.2773209484       16.9111423944       10.7790315289
  C        21.5253554030       17.9532032367       13.1628570590
  C        21.5452508907       17.9558977618       14.5838406472
  C        22.7626425027       17.8541057439       15.3291503354
  C        14.0459198467       17.8326868950       10.2837488792
  C        15.3526386663       17.8999600765       11.0004997288
  C        15.6106799450       18.9172990293       11.9321256146
  C        16.8212011677       18.9477662412       12.6206354546
  C        17.8052659135       17.9638839053       12.3983455416
  C        17.5530544817       16.9716177170       11.4327437784
  C        16.3419895563       16.9368984945       10.7453320325
  C        19.0715347879       17.9547233760       13.1690178380
  C        19.0639492213       17.9569988786       14.5907023116
  C        17.8532310198       17.8544024137       15.3454998040
  C        46.8036725617       17.2189422128       10.1593753226
  C        45.5132610993       17.1577602250       10.9061433698
  C        45.3051916394       16.1778237546       11.8892616599
  C        44.1229392406       16.1587552460       12.6249165493
  C        43.1177125385       17.1200593112       12.4007480780
  C        43.3234772748       18.0802239265       11.3914017747
  C        44.5062162954       18.1027313228       10.6561946365
  C        41.8631300751       17.1281303259       13.1884838929
  C        41.8664287452       17.1155455005       14.6108708735
  C        43.0743881529       17.2056918858       15.3717707802
  C        20.3074393677       17.9736629967       15.3036418649
  C        20.2971303082       17.9325608800       12.4910288691
  C        46.7824238758       17.2304458294        21.878365644738
  C        45.4772411221       17.1200402706        21.164212747738
  C        45.2587509876       16.1176848055        20.206594941038
  C        44.0692868375       16.0844725590        19.482229711538
  C        43.0666886955       17.0502145633        19.697665972238
  C        43.2755568945       18.0223609455        20.694059953238
  C        44.4663115177       18.0619465785        21.413526665838
  C        41.8191754867       17.0671925627        18.900000634538
  C        41.8439925750       17.0828559953        17.478618111438
  C        43.0635582258       17.1879512729        16.738271477338
  C        46.1530171398       26.6371228883        16.715998561538
  C        46.1620470316       26.6560158484        19.525641639838
  C        14.0404667569       17.8290733607        21.696048472238
  C        15.3543735430       17.9000603178        20.995361966438
  C        15.6233681743       18.9251139092        20.076374039738
  C        16.8473552069       18.9657627703        19.413698480138
  C        17.8274388746       17.9804451669        19.645532051238
  C        17.5638191996       16.9808179767        20.599201990338
  C        16.3420244459       16.9400432870        21.266057522638
  C        19.0940911422       17.9677118497        18.878247587238
  C        19.0759844090       17.9621201302        17.457118662438
  C        17.8591956304       17.8565198088        16.711524354138
  C        28.8094227328       14.0830992767       10.3613356166
  C        28.2156612336       12.9042273065       11.0495799305
  C        28.9468656841       12.1793232565       12.0021457155
  C        28.3576717177       11.1021729119       12.6599793524
  C        27.0259294150       10.7279881351       12.3884954934
  C        26.3185655761       11.4334906541       11.3982795711
  C        26.9038789318       12.5105592760       10.7394934837
  C        26.3601838257        9.6464414998       13.1496185772
  C        26.3344675518        9.6737954740       14.5702646847
  C        26.8312068853       10.7870116264       15.3197297684
  C        32.1752494588       21.2401053852       10.1062065859
  C        32.7570800571       22.4056415254       10.8342542776
  C        32.0069751605       23.0633445544       11.8220708958
  C        32.5700837506       24.1017396126       12.5590596298
  C        33.8984245314       24.5122961782       12.3312993151
  C        34.6303249647       23.8706575053       11.3132523453
  C        34.0711865169       22.8268374764       10.5783962167
  C        34.5222820341       25.5896436825       13.1359104815
  C        34.5131337306       25.5620630552       14.5585326799
  C        34.0066291256       24.4467966123       15.2978418622
  C        25.7141959357        8.5975520995       15.2828388240
  C        25.7276222960        8.5964472463       12.4710279484
  C        32.0753072298       21.1924010359        21.834631028438
  C        32.6543872810       22.3599843407        21.105664716138
  C        31.9280964218       23.0071961850        20.093745799038
  C        32.5045889371       24.0488696775        19.369846708938
  C        33.8229517388       24.4715278052        19.633643703538
  C        34.5295008831       23.8386951893        20.675015214438
  C        33.9571895980       22.7950211348        21.397614637738
  C        34.4665874710       25.5530922070        18.850648264738
  C        34.4854211841       25.5433760634        17.427670121438
  C        33.9928738832       24.4381237783        16.664593123338
  C        40.6068121312       17.0832372532        16.754023180938
  C        40.5874257367       17.0898567612        19.563908695038
  C        28.6625078136       14.0613593108        21.808648781338
  C        28.0613655391       12.9151758929        21.069340974838
  C        28.8160775097       12.2061239544        20.121994438738
  C        28.2443583600       11.1510942897        19.416604721638
  C        26.9036392456       10.7779080560        19.635978306338
  C        26.1658332436       11.4719488558        20.613099597438
  C        26.7353768872       12.5289841541        21.319684209238
  C        26.2758403020        9.6863181970        18.855698424238
  C        26.2924276307        9.6946601088        17.434437282338
  C        26.8088478936       10.7981151740        16.685262045638
  C        18.1352462218        3.1808595378       10.3171077125
  C        17.4056286875        4.2779709863       11.0156762128
  C        16.3897423894        3.9993344206       11.9429259787
  C        15.7417321415        5.0391421465       12.6064295245
  C        16.0935246002        6.3829227081       12.3669693676
  C        17.0830589664        6.6527272749       11.4034463493
  C        17.7324354882        5.6155578598       10.7383823731
  C        15.4689689805        7.4904867775       13.1300420539
  C        15.4842845301        7.4898460140       14.5517636203
  C        16.1859243760        6.4962776049       15.3049175212
  C        42.9457729446       31.8594359413       10.0727427662
  C        43.6460258097       30.7716965222       10.8167679585
  C        44.5916620647       31.0930141324       11.8027382963
  C        45.1973464629       30.0874637822       12.5504037877
  C        44.8707783887       28.7344389106       12.3356220544
  C        43.9448735714       28.4200963034       11.3225066647
  C        43.3360687821       29.4252342251       10.5744638702
  C        45.4883375736       27.6551432007       13.1388282910
  C        45.4925285375       27.6807782628       14.5605280745
  C        44.8054624445       28.6888571339       15.3071352077
  C        14.8553439270        8.5623667192       15.2641240133
  C        14.8736572881        8.5622228849       12.4514536523
  C        42.9465469818       31.9615425384        21.798978704038
  C        43.6916278672       30.8853619378        21.085355380838
  C        44.6563222395       31.1912847346        20.113167028238
  C        45.2777715392       30.1716862145        19.395374201938
  C        44.9537091754       28.8214046337        19.632795439238
  C        44.0200534132       28.5237240444        20.643406000938
  C        43.3918682339       29.5404969484        21.355646339038
  C        45.5627729294       27.7239989907        18.847567808138
  C        45.5330377072       27.7172804026        17.426276209838
  C        44.8267383340       28.7075127187        16.673320885538
  C        35.0944062919       26.6347111570        16.723114323238
  C        35.0819774877       26.6102628694        19.533854064438
  C        18.1484073846        3.2467682102        21.696469936638
  C        17.4297651713        4.3435615068        20.987032868038
  C        16.4144133496        4.0522271824        20.063647663938
  C        15.7659706962        5.0828127482        19.388288130038
  C        16.1207043030        6.4280615620        19.610795153238
  C        17.1122550099        6.7115179484        20.567850592738
  C        17.7600240897        5.6826521752        21.247608824738
  C        15.4900087163        7.5237021542        18.838395498638
  C        15.4956715791        7.5069653912        17.417246772238
  C        16.1923259659        6.5051965753        16.670528527038
  H        10.6722201427       12.4660909748        19.894019244438
  H        11.6942116103       10.5511370047        18.652210080738
  H        15.3910449792       11.1677470105        20.762429946238
  H        14.3507612816       13.0705704213        22.007717318238
  H        13.3754642588       11.6307207366        17.190967087338
  H        50.3224696235       22.7484753098        19.976630720938
  H        49.3192415050       24.6228322019        18.670531357238
  H        45.6418886418       24.1612541841        20.853626687638
  H        46.6628403912       22.2903950595        22.161941538838
  H        47.6294885639       23.5757611283        17.235985403938
  H        14.8718118474        8.5879799536        20.598294156338
  H        50.2866704936       22.7023109311       12.0605755198
  H        49.2686510836       24.5751373219       13.3606711880
  H        45.6103986030       24.1095163281       11.1455620346
  H        46.6525682439       22.2542787599        9.8312004715
  H        47.6074423734       23.5516632790       14.7968824350
  H        40.6460037700       17.1302150429       11.4204081020
  H        48.6870165602       14.0950782522        23.789767168338
  H        10.6808616350       12.4670745045       12.0935558842
  H        11.6886059447       10.5248968725       13.2972730724
  H        15.3922506733       11.1571767232       11.2047448544
  H        14.3642504377       13.0858114202        9.9894087864
  H        13.3748100461       11.6215219686       14.7530312556
  H        47.9301336137       14.2181712940        9.7109557855
  H        47.7799554779       14.3738704056        22.485059304438
  H        49.0832104637       18.5523966856       10.8672414169
  H        10.4158972444       14.1343293624        7.9987916227
  H        24.4742333486        3.0253881945        19.899978338538
  H        25.6031800169        4.8837058063        18.660432810238
  H        23.2027953773        7.7493116148        20.787632713838
  H        22.0944292852        5.8816249780        22.031049130138
  H        23.8074963435        5.7788791409        17.212851998138
  H        36.3694550689       32.1863183478        19.959673442138
  H        35.2339695548       30.3678120682        18.684663770638
  H        37.4964493779       27.4350853362        20.871414907138
  H        38.6118387546       29.2665905418        22.156172766838
  H        36.9941015368       29.4489571683        17.259403859338
  H        25.6731584316        8.6129211940        20.615474866238
  H        36.4479610914       32.2431739787       12.1080040007
  H        35.3226874903       30.4311359079       13.3968639352
  H        37.5018136651       27.4858236702       11.1419569264
  H        38.6018748525       29.3099203416        9.8399370668
  H        37.0105276197       29.4698952256       14.8222810686
  H        46.1089825226       26.5874358646       11.3855268121
  H        44.6682604262       35.1161621882        23.803918983538
  H        24.4585371518        3.0294575799       12.0573069565
  H        25.6099363791        4.8651665118       13.2978956463
  H        23.2010870079        7.7634805223       11.2264623840
  H        22.0618894884        5.9160694658        9.9847825884
  H        23.8160188984        5.7774364809       14.7733885152
  H        44.9536709727       34.3899597483        9.6947986672
  H        44.9019492320       34.2068792360        22.480473299238
  H        40.6650665557       33.2083413090       10.8528141298
  H        23.1501478637        1.9577863124        8.0029257511
  H        25.7693003694       19.6680135839        19.948119017838
  H        23.6083913980       19.7329520199        18.703698777838
  H        22.3074673851       16.2032633717        20.788904724038
  H        24.4755168357       16.1510289040        22.033332076138
  H        23.7088344930       17.7391149120        17.227152393138
  H        35.1014027310       15.4743296858        19.960415857938
  H        37.2274027402       15.4019560780        18.656161109738
  H        38.7040350474       18.7629864509        20.900050966038
  H        36.5795885200       18.8074685280        22.216043610738
  H        37.2111092291       17.3432497752        17.230741918038
  H        20.3246599425       17.9672338322        20.638607248538
  H        35.2458390173       15.3513870641       12.0061658258
  H        37.3631150206       15.3349774720       13.3163836370
  H        38.6784742091       18.8560915955       11.2259116988
  H        36.5428416633       18.8705938317        9.9233891601
  H        37.2303269277       17.3490775945       14.7923770204
  H        35.1144884157       26.6857136728       11.3897920614
  H        28.5077850347       21.0830365757        23.872930760038
  H        25.7290104385       19.6948679586       12.0909775556
  H        23.5458178782       19.7647264213       13.3043779417
  H        22.3156353337       16.1728940561       11.2844720739
  H        24.5025117690       16.1188147761       10.0692060483
  H        23.6984034389       17.7423453035       14.7892950789
  H        28.9747762794       21.7251014833        9.6993451183
  H        29.1814739416       21.7073285912        22.514805592438
  H        32.2370977053       18.6791960218       10.8464910288
  H        27.3696296503       19.0261675549        8.0745027810
  H        14.8516027202       19.6775861772       12.1016733346
  H        17.0196020498       19.7408549501       13.3383842353
  H        18.3044012559       16.2052379287       11.2537227993
  H        16.1328888574       16.1582348544       10.0156961332
  H        16.9134786790       17.7397097267       14.8132805942
  H        46.0870107704       15.4438720855       12.0701106291
  H        43.9632329056       15.3901090159       13.3778969272
  H        42.5567909402       18.8314367182       11.2132282065
  H        44.6799168659       18.8584425707        9.8936775235
  H        44.0167280428       17.3227917538       14.8443281385
  H        20.2951778050       17.9517136184       11.4026680527
  H        46.0371667399       15.3787351888        20.030589859338
  H        43.9046451485       15.3062504733        18.740129006338
  H        42.5076581824       18.7732828109        20.868075011138
  H        44.6469882556       18.8320935253        22.159460299538
  H        43.9977655294       17.2900446647        17.282877063938
  H        46.1988717766       26.6826109616        20.613086112538
  H        52.7411666268       21.0626743548        8.1946301015
  H        14.8639451392       19.6836067636        19.900084905638
  H        17.0582696164       19.7640502280        18.705380928138
  H        18.3131697449       16.2135314624        20.782488748338
  H        16.1216017765       16.1579054170        21.988488145238
  H        16.9238965784       17.7433848344        17.251516623038
  H        52.3223819280       21.6736084846        22.284470353638
  H        52.0134789710       21.7025239769        9.4955120512
  H        49.0670413677       18.6075878711        21.194017756738
  H        13.2472038197       19.0164877057        23.965658442038
  H        29.9699931873       12.4807789417       12.2164258055
  H        28.9238942737       10.5392906837       13.3988512430
  H        25.2897729949       11.1533043864       11.1819100535
  H        26.3545070559       13.0776850308        9.9921976889
  H        27.2029888150       11.6548588185       14.7832126008
  H        30.9878452713       22.7334465453       12.0099733069
  H        31.9815160433       24.6091708201       13.3202433098
  H        35.6586574669       24.1755739773       11.1302703747
  H        34.6448799523       22.3087921144        9.8132939337
  H        33.6541619846       23.5752996206       14.7535177458
  H        25.7649841115        8.5778429457       11.3832518414
  H        30.9168183052       22.6701332641        19.877196636238
  H        31.9327760764       24.5501291767        18.591979534438
  H        35.5498315803       24.1515471451        20.886985132738
  H        34.5115356906       22.2855203249        22.182214944538
  H        33.6302296739       23.5596316372        17.190716027938
  H        40.5803752393       17.0532075398        20.651638217138
  H        32.5164630528       14.1449851833        8.1620403557
  H        29.8529945318       12.4905099025        19.958459452038
  H        28.8352752503       10.5975442550        18.690164093038
  H        25.1285058519       11.1940417410        20.787988370238
  H        26.1635871056       13.0821033010        22.061099971738
  H        27.1623768030       11.6746022832        17.220523776438
  H        33.2900800873       14.2328725971        22.343149595738
  H        33.4109499290       14.3592297062        9.5312262899
  H        32.1052973028       18.5326497084        21.116127734638
  H        30.1903966681       14.1395776048        8.0680926939
  H        16.1178251784        2.9627539530       12.1291377166
  H        14.9521611398        4.8195458016       13.3218951320
  H        17.3654360115        7.6856623233       11.2105677325
  H        18.5146236237        5.8183949577       10.0107412108
  H        16.7524326961        5.7389164512       14.7713851765
  H        44.8280200751       32.1400880421       11.9768563318
  H        45.9372707294       30.3411926854       13.3062956892
  H        43.6820520591       27.3780510804       11.1524904127
  H        42.5993528118       29.1899426515        9.8098877039
  H        44.2301443975       29.4366262029       14.7687849282
  H        14.8499139920        8.5454194646       11.3632345213
  H        44.9000717560       32.2339607704        19.921925675938
  H        46.0248340134       30.4128834804        18.642277260438
  H        43.7628822051       27.4840178526        20.834805727738
  H        42.6452409815       29.3177617134        22.113986316038
  H        44.2682601187       29.4704292830        17.207890076138
  H        35.0399137148       26.6230271107        20.621392191638
  H        36.6051927825       35.1338259446        8.1807566535
  H        16.1432648551        3.0126334754        19.894098742038
  H        14.9735064421        4.8558922675        18.678377957338
  H        17.3958418877        7.7469937309        20.744572012838
  H        18.5429413342        5.8931686314        21.972311642838
  H        16.7638561619        5.7550123657        17.208951944938
  H        36.2787253760       34.4819958570        22.263042185438
  H        36.3808667852       34.2091591407        9.4998994191
  H        40.5796785690       33.2022133638        21.143789652638
  H        17.4708724028        1.9470952111        23.963791114638
  H        28.7858129805       18.9587684034       12.4134640667
  H        28.7186231544       18.7643593715        19.719257282838
  H        30.6853276471       15.3574746395        19.735298885238
  H        32.6322647005       16.1477371635       12.2331174903
  H        18.8536826196        0.8689946892       12.3352306511
  H        40.5282960455       35.2289796929        19.941960278638
  H        42.3236302754       34.4187813307        19.580233345638
  H        22.0874252488        0.6921444285       12.3516529053
  H        11.5966382497       18.7128878116       12.3826561506
  H        52.2648320232       18.4313644898        19.667281981038
  H        49.2552378171       16.4765077671        19.573902106938
  H        10.1503601104       15.7982500952       12.2925367782
  H        50.8500139069       17.6926661967        19.943794336438
  H        10.0460912710       17.3946981425       12.0519442146
  H        20.2150158408        0.0020597813       12.0419480768
  H        39.1836554835       36.1242887537        19.676292627238
 Ni        30.6478230440       17.6460435103        18.824942322538
 Ni        30.8636968635       16.8769445784       14.737675287338
 Ni        30.4817177466       17.9442198961        16.577237313338
 Ni        30.7748079170       17.6163965493       12.5757633260
  O        10.6497740537       14.3651630427        21.475701596238
  O        12.6129740817       14.6574105770        22.573747480438
  O        49.1477066003       16.8459304572        23.979440922238
  O        50.3500951418       20.9362490806        21.638010292738
  O        48.3484849012       20.5932292775        22.655717937938
  O        11.0509672019       17.0539561153        22.490470939738
  O        50.3206740202       20.8815846296       10.4069660142
  O        48.3465931462       20.5865219079        9.3271406862
  O        49.5435080998       18.2484629445       10.0682861423
  O        12.3588088999       18.6246495503        7.9997055019
  O        48.6931668529       14.1486718299        22.741059038738
  O         8.2098242544       14.2104539138        9.3225777885
  O        10.7352959453       14.5068178006       10.6643483540
  O        12.5717056467       14.5827803840        9.3285592284
  O        22.8441265730        2.0421265238        21.477114331538
  O        21.6046311862        3.5918319676        22.579488323438
  O        42.0578741358       34.1370200524        23.968835948238
  O        37.9812939365       33.1351170443        21.561740300238
  O        39.2175433359       31.5749255590        22.655421492338
  O        20.3082606813        1.0394996303        22.491686216738
  O        38.0240308416       33.1847758225       10.4156187051
  O        39.2178800498       31.5826171829        9.3276119657
  O        40.6521827833       33.7691505184       10.0602379681
  O        18.2557730108        1.3762161533        7.9968388481
  O        44.6222113481       35.1005443342        22.748635716638
  O        24.2054920402       -0.0001036562        9.3207768017
  O        22.7530338279        2.0564149452       10.5829405903
  O        21.6243877648        3.5956198612        9.3421868263
  O        27.4621320447       18.6928040135        21.475547095738
  O        26.6911588245       16.9192582232        22.660616484738
  O        30.6293205815       19.3464957572        8.0046872136
  O        33.5400246353       16.3306223848        21.645066939438
  O        34.2666242750       18.1813781664        22.731557420838
  O        29.5368999565       17.0150581777        22.559485554438
  O        33.5955353766       16.2667830103       10.4063413394
  O        34.2643938837       18.1843396329        9.4004667688
  O        31.6476178459       18.3128107080       10.1643203887
  O        30.2924829632       15.1051726632        8.0702467663
  O        28.5513794211       21.0242673368        22.808928631138
  O        28.5108880653       20.9542931063        9.3300177575
  O        27.4613049354       18.6796298548       10.6593482647
  O        26.6911078315       16.9300859695        9.4188069138
  O        13.1467118507       18.6938366923       10.5861944596
  O        13.9184542798       16.9160947762        9.4044062279
  O        50.5957381192       19.3502457914        8.0205787058
  O        47.6822388888       16.3274903107       10.4178157245
  O        46.9510441487       18.1759663125        9.3251729519
  O        11.0690973846       17.0157762145        9.4895896781
  O        47.6742831095       16.3358519286        21.642551939738
  O        46.9246656389       18.2358403960        22.652934978338
  O        49.5687214840       18.3178261622        21.972022821538
  O        10.3187166053       15.1001786760        7.9969917807
  O        52.6706866734       21.0279890173        9.2418085741
  O        12.1468068042       20.8913772616        22.663094684338
  O        13.1049299971       18.6141944878        21.315853487838
  O        13.9557695143       16.9865820739        22.654726948838
  O        29.9985642287       14.4386420975       10.6645664722
  O        28.0731951609       14.6571239436        9.4879115921
  O        32.0687665818       16.8495313327        8.0593442832
  O        30.9541609592       20.9510731475       10.3333983235
  O        32.9547685596       20.5857460237        9.3260282967
  O        29.5736226052       17.0702164437        9.5784736934
  O        30.8572763521       20.8741488070        21.577382903938
  O        32.8562757632       20.5811090488        22.645084474638
  O        31.6109250781       18.2380466235        21.899387394838
  O        28.2570705335       18.6311368561        8.0662666586
  O        32.4934104799       14.2060020831        9.2419023588
  O        32.4002700449       14.2137322925        22.734044135738
  O        29.8380450618       14.4349418589        21.474777789038
  O        27.9604243266       14.5851139398        22.741052239038
  O        17.8892017006        1.9665169621       10.6628204092
  O        18.9561765449        3.5271048784        9.4080684865
  O        39.1684743301       34.1385387418        7.9971516425
  O        43.2801086552       33.0587865238       10.3317381462
  O        42.0342891676       31.5064099185        9.2416177435
  O        20.3173580272        1.0363464775        9.4802206049
  O        43.2760491496       33.1825039238        21.564707738238
  O        42.0052092113       31.5841579181        22.572809974838
  O        40.5790460833       33.7750351477        21.925765023138
  O        22.3671497138        1.3843454793        7.9980692079
  O        36.6728049670       35.0997240799        9.2333349769
  O        16.4456597306        0.0639994581        22.657960382838
  O        17.9363662824        2.0431714629        21.316161357338
  O        18.9189065761        3.5931188198        22.655671799838
  O        29.6545234761       18.8342179178        19.986740398238
  O        29.6926489270       19.0554226581       12.0692051964
  O        31.2254880770       16.1289209431        19.988527946338
  O        31.6740530291       16.0515374671       12.0815233519
  O        39.4568660529       35.2436777315        19.991828342538
  O        19.1415117206        0.0044923362       11.9905185666
  O        41.9694634591       35.1726529032        20.077013790138
  O        21.6912633045       -0.0694140213       11.8960356973
  O        51.3648777008       18.6143788414        19.995067419138
  O        10.7509432130       18.7472099967       11.9049742561
  O        50.0794856895       16.4127460875        20.081541963138
  O         9.5244165331       16.4831197245       11.9911967128
 Zr         9.2967187030       16.0529047796        22.172006168338
 Zr        49.8362643667       16.0068615439        9.7465184275
 Zr        22.0732513714        0.0296305387        22.179110284438
 Zr        42.4608646486       35.1533380515        9.8010489348
 Zr        29.5599779572       19.0558915822        22.216490467938
 Zr        29.5593205333       19.1887545129        9.8337502325
 Zr        11.0375937893       19.0522872049        9.8277664817
 Zr        11.0435165314       19.1551343031        22.240925892938
 Zr        31.3479919631       16.0466589782        9.8428896944
 Zr        31.3469015177       15.9874076884        22.210797904738
 Zr        18.6011452388       -0.0017506556        9.7636186905
 Zr        18.5065388499       -0.0082204240        22.203334144838
 Zr        12.3013921829       16.3233265969        23.980349904238
 Zr        48.6160861620       18.8330055823        8.0099332933
 Zr        20.3149439343        2.4732400853        23.980564681538
 Zr        40.6428195302       32.6866890242        23.968065831338
 Zr        28.3246513953       16.3226894079        8.0854045047
 Zr        32.5979657554       18.8196923486        8.0190097752
