     564
 i =      212, E =     -4680.1446700705
  C        11.8585299622       14.0533754869        21.731337927838
  C        12.4558716177       12.8903481151        21.013113435038
  C        11.7042630044       12.1717098396        20.071157788638
  C        12.2805705434       11.1094788525        19.378799762438
  C        13.6210070003       10.7392990694        19.606786323838
  C        14.3540550003       11.4425372150        20.580603218038
  C        13.7812245911       12.5075094855        21.272156427138
  C        14.2604580499        9.6486188673        18.833358027138
  C        14.2556177303        9.6564884162        17.411652266938
  C        13.7424473546       10.7585926294        16.657722191438
  C        49.1265831934       21.2334324877        21.869532669638
  C        48.5497418649       22.4012824010        21.142528835438
  C        49.2997168497       23.0684862559        20.161396252638
  C        48.7327455525       24.1075525504        19.428156968338
  C        47.4022314651       24.5092544930        19.656856676438
  C        46.6713805951       23.8605602888        20.670568854238
  C        47.2338510534       22.8157025357        21.399963758238
  C        46.7719533872       25.5868758635        18.859547062238
  C        46.7610174160       25.5572418532        17.437790761438
  C        47.2608490957       24.4420942046        16.694311039938
  C        14.8594521150        8.5700990576        16.698371714938
  C        14.8913448000        8.5967081008        19.509983266938
  C        49.1128682413       21.2034573263       10.1453054164
  C        48.5274702907       22.3647578165       10.8724144925
  C        49.2665825995       23.0252228792       11.8655939803
  C        48.6902423531       24.0597584119       12.5970473604
  C        47.3599294459       24.4567609320       12.3586014748
  C        46.6396872463       23.8121419154       11.3347630881
  C        47.2132347275       22.7762580710       10.6029545267
  C        46.7214478036       25.5316626847       13.1496534289
  C        46.7331842209       25.5279876210       14.5713557528
  C        47.2486169119       24.4287849905       15.3277575695
  C        40.6192893510       17.0835119645       15.3184448699
  C        40.6391791513       17.1406332098       12.5080357704
  C        11.8827913768       14.0862855554       10.2854795625
  C        12.4717774415       12.9102778806       10.9895285933
  C        11.7142248230       12.1775582251       11.9160038772
  C        12.2805625498       11.0949918996       12.5844281687
  C        13.6191597368       10.7206324882       12.3522718554
  C        14.3570597718       11.4355864048       11.3909373681
  C        13.7918897625       12.5168602802       10.7182145869
  C        14.2526373309        9.6238815605       13.1227469117
  C        14.2514609894        9.6439571457       14.5445890144
  C        13.7417607815       10.7529758585       15.2916752518
  C        22.5051738492        3.2427663725        21.737661473638
  C        23.2056654404        4.3465895648        21.024245742938
  C        24.2049724937        4.0655881326        20.081074800238
  C        24.8234732006        5.1040128141        19.390305745938
  C        24.4567485256        6.4442949820        19.622626396538
  C        23.4817651184        6.7170120691        20.599192535938
  C        22.8596412199        5.6805756923        21.289288702238
  C        25.0639326948        7.5499584601        18.849164429838
  C        25.0602183100        7.5383105403        17.428193781638
  C        24.3707627112        6.5354333278        16.675797635438
  C        38.3011770502       31.9272313223        21.837569787138
  C        37.5674450322       30.8388514500        21.127093669938
  C        36.6025490863       31.1467468502        20.155302192138
  C        35.9769481871       30.1303255972        19.438060236338
  C        36.3003916928       28.7786408893        19.668927797438
  C        37.2371086236       28.4781315618        20.676245601938
  C        37.8665014426       29.4934808501        21.393055499238
  C        35.6873861919       27.6905822795        18.871507746538
  C        35.7113491564       27.7080421509        17.449305505138
  C        36.4154126889       28.7105202073        16.710617769738
  C        25.6932678798        8.6072115679        16.715642059738
  C        25.6432620403        8.6299109541        19.526238312238
  C        38.3256052600       31.9609232534       10.1559063564
  C        37.5960612880       30.8894638909       10.8953204294
  C        36.6612951997       31.2024468798       11.8945360114
  C        36.0404981420       30.1877194408       12.6209180299
  C        36.3394201629       28.8326815992       12.3735561766
  C        37.2521237049       28.5296985767       11.3441898161
  C        37.8747309289       29.5410973842       10.6184555333
  C        35.7223206736       27.7369057450       13.1580495639
  C        35.7283555222       27.7321149345       14.5807653734
  C        36.4227418677       28.7226060708       15.3439790479
  C        46.1351657862       26.6206215292       15.2814835868
  C        46.0875077837       26.5800270001       12.4735946997
  C        22.4655165184        3.2543624096       10.2519529589
  C        23.1721166186        4.3609447643       10.9634876876
  C        24.1844543498        4.0710422641       11.8919723034
  C        24.8225445056        5.0992628539       12.5807971544
  C        24.4672020883        6.4452535672       12.3635098488
  C        23.4797980754        6.7286382238       11.4014842372
  C        22.8375742341        5.7007389183       10.7123170582
  C        25.0987441285        7.5398661854       13.1406033276
  C        25.0784331809        7.5325321368       14.5624338547
  C        24.3767163767        6.5346001514       15.3097049263
  C        26.5551976776       17.8260633804        21.780899361338
  C        25.2552253620       17.8834367463        21.053423541138
  C        24.9992789153       18.9004991407        20.120699862438
  C        23.7929142965       18.9282729350        19.425478000138
  C        22.8102182338       17.9424452457        19.643608143838
  C        23.0612127708       16.9481953801        20.607490552038
  C        24.2691938751       16.9152064681        21.300750538638
  C        21.5448839471       17.9368825153        18.871300551238
  C        21.5539416243       17.9347980991        17.449528696338
  C        22.7646885843       17.8291376834        16.694592776538
  C        34.4215482761       17.2165245676        21.908203239338
  C        35.7161834741       17.1469837336        21.170253651238
  C        35.9029541975       16.1812609148        20.168585286138
  C        37.0846227822       16.1505219353        19.432832340438
  C        38.1099907600       17.0860876529        19.674369369438
  C        37.9242773699       18.0317186379        20.701665568038
  C        36.7417435575       18.0665469132        21.437373721238
  C        39.3635095428       17.0848563459        18.884664930538
  C        39.3595798317       17.0930250822        17.461843670238
  C        38.1527949301       17.2069995733        16.701797126738
  C        20.3103041715       17.9546484226        16.737179553038
  C        20.3192143545       17.9276379884        19.549475205738
  C        34.4539108917       17.1878099613       10.1745787325
  C        35.7574179313       17.1182750930       10.8959479011
  C        35.9973965497       16.1123827958       11.8450329317
  C        37.1814545319       16.1035812922       12.5772636360
  C        38.1600466203       17.0960475685       12.3755612437
  C        37.9294523820       18.0762196884       11.3920723264
  C        36.7408634776       18.0930492754       10.6663078011
  C        39.4080121213       17.1150053364       13.1723437386
  C        39.3827618481       17.1076535846       14.5936762803
  C        38.1635881784       17.2102186287       15.3349448336
  C        35.0955734157       26.6541102549       15.2854864160
  C        35.1316019400       26.6655550510       12.4758827910
  C        26.5608487719       17.8242575492       10.3228027112
  C        25.2482597383       17.8746182767       11.0260526545
  C        24.9657570196       18.9131510911       11.9261702752
  C        23.7483976998       18.9430507569       12.5997831300
  C        22.7855476356       17.9363160740       12.3926726448
  C        23.0608681600       16.9216433150       11.4586168324
  C        24.2795814203       16.8884145486       10.7845239736
  C        21.5208418376       17.9273205984       13.1628185314
  C        21.5409629896       17.9302210398       14.5835563041
  C        22.7585497504       17.8278280838       15.3283621382
  C        14.0447523622       17.8319602979       10.2837534884
  C        15.3508211086       17.8964284129       11.0008478398
  C        15.6107588033       18.9121850864       11.9334849411
  C        16.8211453610       18.9386222080       12.6222134517
  C        17.8020565424       17.9519003581       12.3989041239
  C        17.5480433352       16.9614820670       11.4320634510
  C        16.3372850083       16.9308156548       10.7445138254
  C        19.0677434777       17.9373425915       13.1693724184
  C        19.0599177139       17.9388767118       14.5907915895
  C        17.8487811845       17.8404912035       15.3455449746
  C        46.8037235425       17.2186554398       10.1593130426
  C        45.5129958342       17.1555136740       10.9053538593
  C        45.3052954834       16.1729659854       11.8859528198
  C        44.1230664171       16.1515145209       12.6214905569
  C        43.1176002846       17.1130728363       12.3998389051
  C        43.3229526037       18.0759413615       11.3929987438
  C        44.5056746568       18.1007752910       10.6577637311
  C        41.8631555747       17.1184640238       13.1878370524
  C        41.8667073805       17.1042637036       14.6102169540
  C        43.0747813999       17.1944311080       15.3709285099
  C        20.3034263822       17.9515281620       15.3034140346
  C        20.2929677225       17.9107230937       12.4909394020
  C        46.7824744266       17.2300295343        21.878468947838
  C        45.4774645951       17.1184543876        21.164135743038
  C        45.2589875582       16.1133364556        20.209356694738
  C        44.0697185486       16.0782533860        19.484732914638
  C        43.0674564789       17.0450399440        19.696946675638
  C        43.2763669551       18.0201700383        20.690388646638
  C        44.4668885329       18.0615637640        21.410192547638
  C        41.8198562630       17.0597741432        18.899362462438
  C        41.8445158358       17.0726659721        17.477990669138
  C        43.0640448703       17.1769289808        16.737440908638
  C        46.1529292528       26.6370664185        16.716028337738
  C        46.1620566045       26.6560368478        19.525654041638
  C        14.0396084207       17.8282218907        21.695992838738
  C        15.3532292438       17.8972239194        20.995441270938
  C        15.6238407033       18.9212338733        20.075904550638
  C        16.8476259645       18.9585517181        19.412821853038
  C        17.8250476452       17.9707960879        19.645118559838
  C        17.5600203555       16.9725024582        20.599610721338
  C        16.3384781098       16.9349620476        21.266685044738
  C        19.0909673868       17.9536100711        18.877500274138
  C        19.0722533102       17.9459994942        17.456621847238
  C        17.8548668045       17.8434379878        16.711486416838
  C        28.8035942741       14.0847358317       10.3550959064
  C        28.2056132155       12.9076768563       11.0448222875
  C        28.9363529007       12.1841289023       11.9986587309
  C        28.3474888402       11.1078581676       12.6579264410
  C        27.0157418532       10.7337151430       12.3872474354
  C        26.3079419390       11.4387114424       11.3969720016
  C        26.8935527793       12.5146567067       10.7360704655
  C        26.3515321823        9.6516671212       13.1489690174
  C        26.3278024721        9.6773425076       14.5697939499
  C        26.8274542726       10.7888192389       15.3200909629
  C        32.1746784737       21.2418175566       10.1079483005
  C        32.7562730613       22.4077877442       10.8352620209
  C        32.0032827512       23.0670037227       11.8198135678
  C        32.5640004864       24.1067996580       12.5563543509
  C        33.8927215212       24.5171031424       12.3308565178
  C        34.6276327513       23.8739948496       11.3160542885
  C        34.0707584907       22.8286446888       10.5816452811
  C        34.5140380447       25.5959248007       13.1348992991
  C        34.5033875635       25.5696948925       14.5574161988
  C        33.9969682278       24.4546241892       15.2970959515
  C        25.7084879139        8.6002075414       15.2819187768
  C        25.7199420624        8.6012646910       12.4702230194
  C        32.0794502178       21.1995381642        21.840608384138
  C        32.6606126653       22.3660523607        21.111449685038
  C        31.9306701687       23.0140821245        20.102620582138
  C        32.5048418209       24.0549933251        19.376137475838
  C        33.8248341596       24.4758937256        19.634013024838
  C        34.5356621264       23.8416624814        20.671660140238
  C        33.9654348998       22.7984693510        21.397066426838
  C        34.4646510193       25.5585773134        18.849459142038
  C        34.4791420150       25.5504794656        17.426459618438
  C        33.9849389325       24.4456942117        16.663830857538
  C        40.6072195171       17.0711410484        16.753569151638
  C        40.5882486112       17.0839339443        19.563419588038
  C        28.6549455147       14.0591402928        21.814110245838
  C        28.0509656613       12.9141091675        21.074947818138
  C        28.8098531479       12.1944847098        20.138988917738
  C        28.2370681212       11.1421087678        19.430566368338
  C        26.8911263386       10.7813486702        19.636842907038
  C        26.1482938307       11.4856995242        20.602630276438
  C        26.7189884264       12.5407558484        21.311739354838
  C        26.2647391399        9.6896579104        18.855253466038
  C        26.2855476002        9.6967580473        17.434161781138
  C        26.8057915738       10.7989130390        16.685731143738
  C        18.1353077718        3.1808927600       10.3171592556
  C        17.4057497482        4.2780276817       11.0157621875
  C        16.3898454706        3.9994339461       11.9429938728
  C        15.7418497182        5.0392625376       12.6064729223
  C        16.0936837819        6.3830259184       12.3669974089
  C        17.0833245713        6.6527902347       11.4035781047
  C        17.7326801815        5.6155936815       10.7385410014
  C        15.4691844505        7.4906139696       13.1300737948
  C        15.4844687281        7.4899660271       14.5517882826
  C        16.1861395431        6.4964260719       15.3049419165
  C        42.9457143619       31.8594484762       10.0728020005
  C        43.6460857916       30.7716996371       10.8167251805
  C        44.5916316031       31.0930249728       11.8027690226
  C        45.1972857982       30.0874789519       12.5504789100
  C        44.8707483609       28.7344435188       12.3356577381
  C        43.9449329395       28.4200934792       11.3224482007
  C        43.3361660301       29.4252428984       10.5743727326
  C        45.4882935741       27.6551399649       13.1388617647
  C        45.4925080745       27.6807748020       14.5605557880
  C        44.8053842299       28.6888113250       15.3071616111
  C        14.8555116716        8.5624723092       15.2641449240
  C        14.8738084093        8.5623045602       12.4514793902
  C        42.9463626248       31.9615783125        21.798813162038
  C        43.6915104367       30.8853785021        21.085267072638
  C        44.6562265641       31.1912838333        20.113104991438
  C        45.2776755447       30.1716997878        19.395304717938
  C        44.9537456112       28.8214164418        19.632853674338
  C        44.0201196658       28.5237283016        20.643482440738
  C        43.3919495618       29.5405079216        21.355726835038
  C        45.5627469612       27.7240061125        18.847591941038
  C        45.5329885101       27.7172511972        17.426299228938
  C        44.8266919007       28.7074948387        16.673345090338
  C        35.0853931881       26.6429893150        16.721281533738
  C        35.0806934800       26.6157128149        19.531789994338
  C        18.1484565194        3.2467851161        21.696395691638
  C        17.4298283090        4.3435983404        20.986969542138
  C        16.4145056487        4.0522806962        20.063560535938
  C        15.7660830374        5.0828759057        19.388203482538
  C        16.1207710866        6.4281181688        19.610798202738
  C        17.1123489892        6.7115549984        20.567825889338
  C        17.7600926805        5.6826748829        21.247581026438
  C        15.4901322179        7.5237667388        18.838379134138
  C        15.4958104014        7.5070594758        17.417238646238
  C        16.1925342194        6.5053277103        16.670545638038
  H        10.6722492395       12.4660996810        19.893899288738
  H        11.6943255934       10.5512059792        18.652067391238
  H        15.3909551102       11.1676250140        20.762608853938
  H        14.3506052296       13.0703782332        22.007933813838
  H        13.3756112837       11.6308191063        17.190980912138
  H        50.3223926180       22.7483957061        19.976582140338
  H        49.3191461547       24.6227265066        18.670453632238
  H        45.6419339415       24.1614357251        20.853830167938
  H        46.6628919982       22.2905894997        22.162185967038
  H        47.6294116918       23.5757238659        17.235988751438
  H        14.8718109743        8.5879718758        20.598293054938
  H        50.2865480940       22.7022210286       12.0606617438
  H        49.2685507015       24.5750858139       13.3606977133
  H        45.6104182561       24.1096743993       11.1454229498
  H        46.6525430670       22.2543899937        9.8310956627
  H        47.6073513508       23.5516282903       14.7968951849
  H        40.6458607440       17.1219124731       11.4198560833
  H        48.6870673128       14.0950463754        23.789800545438
  H        10.6809365248       12.4670903834       12.0937027490
  H        11.6887702862       10.5249457607       13.2974009523
  H        15.3922959129       11.1571929765       11.2046674764
  H        14.3642272703       13.0857700368        9.9893234346
  H        13.3749985702       11.6216229712       14.7530502592
  H        47.9301271242       14.2181975448        9.7108576902
  H        47.7799772695       14.3739111445        22.485159020438
  H        49.0830182321       18.5524150873       10.8671878806
  H        10.4158851826       14.1343029396        7.9987759694
  H        24.4757621364        3.0275239059        19.901670090138
  H        25.6011444418        4.8876034518        18.661077162238
  H        23.1911059641        7.7493039735        20.782607857038
  H        22.0864240956        5.8800059568        22.027123093038
  H        23.8046077209        5.7784156151        17.210619336038
  H        36.3665638272       32.1909527897        19.964264219938
  H        35.2282746208       30.3750903457        18.687778217638
  H        37.4963041847       27.4379650273        20.862793776738
  H        38.6138864965       29.2668458816        22.149850404338
  H        36.9822505117       29.4597429618        17.255612070238
  H        25.6580671954        8.6180492363        20.614541448238
  H        36.4413997506       32.2477341765       12.0996170333
  H        35.3106806613       30.4382192815       13.3876693329
  H        37.4962590473       27.4882766927       11.1450804106
  H        38.6010130167       29.3098681828        9.8429632640
  H        36.9961959105       29.4807420411       14.8184462382
  H        46.1089190480       26.5874640314       11.3855595494
  H        44.6682429239       35.1162097955        23.803939668938
  H        24.4601504303        3.0317860011       12.0558561735
  H        25.6096341409        4.8692803503       13.2957655844
  H        23.1955670258        7.7641384307       11.2256683552
  H        22.0585268376        5.9150777549        9.9843801781
  H        23.8143711109        5.7774609496       14.7711240055
  H        44.9536492345       34.3899069452        9.6947538083
  H        44.9019315124       34.2068584916        22.480551678638
  H        40.6649830812       33.2083413808       10.8527563515
  H        23.1500118761        1.9579243438        8.0028250566
  H        25.7543277188       19.6661834084        19.957813321338
  H        23.5957406513       19.7215652731        18.707643783738
  H        22.3109155820       16.1796428238        20.781488795638
  H        24.4780017188       16.1354584604        22.029522145338
  H        23.7045933354       17.7157437608        17.227046367138
  H        35.1025909125       15.4710759659        19.972977284338
  H        37.2274328561       15.3927606765        18.665582068438
  H        38.7063923002       18.7634854748        20.893111290638
  H        36.5839578878       18.8129347937        22.212555773538
  H        37.2112188741       17.3247331173        17.230515794238
  H        20.3218364093       17.9528119678        20.637713020538
  H        35.2426162829       15.3458250256       12.0043565562
  H        37.3631607115       15.3219634583       13.3117565389
  H        38.6786076657       18.8486396951       11.2306715373
  H        36.5418279180       18.8678790212        9.9295657035
  H        37.2304501025       17.3283193743       14.7913708878
  H        35.1075847203       26.6898565112       11.3880156430
  H        28.5066651496       21.0977520909        23.887165672638
  H        25.7102739567       19.6908714635       12.0796027572
  H        23.5281194902       19.7497073996       13.2956768574
  H        22.3234808533       16.1383661927       11.2956166193
  H        24.5106005742       16.0941753456       10.0786141612
  H        23.6936828949       17.7148468640       14.7876359943
  H        28.9616885523       21.7326309811        9.7113629438
  H        29.1570125387       21.7324303016        22.511027846438
  H        32.2203664976       18.6598064671       10.8640353904
  H        27.3457080074       19.0669780779        8.0886910384
  H        14.8534917351       19.6742085786       12.1033845396
  H        17.0218350949       19.7302072049       13.3409699682
  H        18.2975095707       16.1933573962       11.2527190864
  H        16.1259165865       16.1537705699       10.0138569252
  H        16.9087117298       17.7285385154       14.8133185600
  H        46.0873915534       15.4388496139       12.0648860982
  H        43.9635743268       15.3808197279       13.3724257089
  H        42.5559306437       18.8272696343       11.2167827461
  H        44.6790667193       18.8584586166        9.8971228773
  H        44.0170773693       17.3112098250       14.8433161914
  H        20.2909363543       17.9303527501       11.4026057527
  H        46.0372344115       15.3736216927        20.035823024038
  H        43.9050545727       15.2978278176        18.744943190238
  H        42.5086743293       18.7718996873        20.861796430038
  H        44.6475671742       18.8338478800        22.153931919738
  H        43.9983133573       17.2790342123        17.281945110438
  H        46.1989070384       26.6826361289        20.613097379938
  H        52.7411615410       21.0626417233        8.1946099553
  H        14.8659414667       19.6812501703        19.899611290038
  H        17.0604240338       19.7557303045        18.703822769738
  H        18.3078542211       16.2037620953        20.782920289638
  H        16.1161677642       16.1539072218        21.989662638138
  H        16.9193570176       17.7337618170        17.251817480038
  H        52.3223324592       21.6736228838        22.284496783238
  H        52.0135261623       21.7026185431        9.4954556146
  H        49.0669208181       18.6075382949        21.193973559238
  H        13.2471741028       19.0164494558        23.965684675838
  H        29.9593207721       12.4863528366       12.2124162797
  H        28.9140763962       10.5455472637       13.3969602692
  H        25.2788949905       11.1586593419       11.1815264853
  H        26.3445561908       13.0810035873        9.9878081677
  H        27.2017061741       11.6559149127       14.7839901598
  H        30.9836265238       22.7371421419       12.0049525856
  H        31.9735546003       24.6157343602       13.3150855664
  H        35.6562819744       24.1791580387       11.1352473901
  H        34.6463639645       22.3093422423        9.8188273494
  H        33.6440059712       23.5832126872       14.7529335253
  H        25.7564027939        8.5837216827       11.3824036272
  H        30.9183922737       22.6770848404        19.890748944238
  H        31.9302134504       24.5570536797        18.600870214538
  H        35.5574477659       24.1531397109        20.878573054238
  H        34.5229636367       22.2877483720        22.178677279938
  H        33.6229064070       23.5671980616        17.190326246738
  H        40.5814193918       17.0503073896        20.651241792338
  H        32.5253100566       14.1333144652        8.1761348239
  H        29.8515222341       12.4672252576        19.986736650638
  H        28.8309829830       10.5806527821        18.712650511138
  H        25.1068750907       11.2168512923        20.767101851438
  H        26.1438349949       13.1020020425        22.044484755038
  H        27.1629313041       11.6735063250        17.221767930638
  H        33.2833811878       14.2092946696        22.324890828738
  H        33.4102243873       14.3690977541        9.5385017676
  H        32.2079613080       18.6126644307        21.159857037138
  H        30.1787365389       14.1401637314        8.0674186462
  H        16.1178773051        2.9628659703       12.1291750255
  H        14.9522353110        4.8197028084       13.3218975555
  H        17.3657602958        7.6857141153       11.2107335117
  H        18.5149174670        5.8184161145       10.0109542805
  H        16.7526809297        5.7390978744       14.7714065614
  H        44.8279106168       32.1401138032       11.9769252739
  H        45.9371494014       30.3412347087       13.3064268428
  H        43.6821591913       27.3780323859       11.1524063112
  H        42.5994948995       29.1899458575        9.8097465582
  H        44.2300736546       29.4366018396       14.7688399122
  H        14.8500892371        8.5454976712       11.3632595002
  H        44.8998546100       32.2339625145        19.921748192838
  H        46.0246511698       30.4129072130        18.642128744738
  H        43.7629988425       27.4840148615        20.834919780338
  H        42.6453405828       29.3177696618        22.114083452438
  H        44.2682048423       29.4703896271        17.207943844938
  H        35.0420718069       26.6271661023        20.619454333838
  H        36.6051961133       35.1339261458        8.1806798435
  H        16.1434150086        3.0126837510        19.893961212438
  H        14.9736226912        4.8559753918        18.678286944738
  H        17.3959129172        7.7470275941        20.744592549238
  H        18.5430181199        5.8931623029        21.972280750638
  H        16.7640883387        5.7551674953        17.208967242338
  H        36.2787900428       34.4820054656        22.263141011038
  H        36.3810731397       34.2090718601        9.4997231228
  H        40.5798637360       33.2023266272        21.143774552438
  H        17.4707822584        1.9470688849        23.963820771138
  H        28.6806891963       18.9943169552       12.2768595132
  H        28.6544318299       18.8783050910        19.770969828938
  H        30.7885756024       15.1441700973        19.847674526838
  H        32.4990025854       16.1167455282       12.2356415074
  H        18.8537775836        0.8689922752       12.3353212567
  H        40.5282911448       35.2289341756        19.941921703438
  H        42.3238469444       34.4189896286        19.580014122338
  H        22.0874392935        0.6921997476       12.3516332101
  H        11.5966433706       18.7128902052       12.3825601517
  H        52.2647125872       18.4313919567        19.667193219838
  H        49.2552177826       16.4764044262        19.573876409838
  H        10.1503718594       15.7982759422       12.2925446398
  H        50.8499057189       17.6926430224        19.943793066338
  H        10.0460603100       17.3947287031       12.0519184684
  H        20.2150675269        0.0020656484       12.0419588774
  H        39.1837271700       36.1243398102        19.676227709238
 Ni        30.6463691329       17.5076325729        19.319211191438
 Ni        31.2807990497       17.3754199268       15.0739760282
 Ni        30.3126229119       18.0880895754        16.988899298538
 Ni        30.6909727997       17.6693788395       12.7444292084
  O        10.6497647796       14.3651984990        21.475588099838
  O        12.6130303260       14.6573767969        22.573633242938
  O        49.1476307664       16.8459471534        23.979456672438
  O        50.3500898286       20.9362878429        21.638038201738
  O        48.3484537118       20.5932473687        22.655729524238
  O        11.0510111476       17.0540574552        22.490391448538
  O        50.3206544613       20.8816834162       10.4068658290
  O        48.3466094343       20.5866320994        9.3270057467
  O        49.5433515234       18.2484244306       10.0682633590
  O        12.3587740038       18.6246849423        7.9996600988
  O        48.6931806649       14.1486338010        22.741073735338
  O         8.2098341460       14.2104444834        9.3225508253
  O        10.7352729409       14.5067874783       10.6643507381
  O        12.5716985121       14.5826945360        9.3285575853
  O        22.8441550939        2.0421983172        21.477239365038
  O        21.6043254808        3.5915173995        22.579790182538
  O        42.0579589853       34.1370876117        23.968909717938
  O        37.9813398484       33.1360223369        21.561906728538
  O        39.2173546894       31.5750066680        22.655230702138
  O        20.3082552523        1.0393822140        22.491760211538
  O        38.0242891250       33.1853916013       10.4153320354
  O        39.2178328390       31.5826368792        9.3277321126
  O        40.6521721768       33.7691109033       10.0601836963
  O        18.2556376336        1.3761420679        7.9967719579
  O        44.6222336064       35.1005544881        22.748641531738
  O        24.2054994539       -0.0001185059        9.3207685112
  O        22.7531050520        2.0565527822       10.5828754969
  O        21.6242403956        3.5954293244        9.3418443523
  O        27.4499490296       18.6940673776        21.480574887538
  O        26.6913539769       16.9169869779        22.662256250538
  O        30.6398525692       19.3496742887        8.0038458528
  O        33.5461524743       16.3305014858        21.651001215738
  O        34.2651651272       18.1863534693        22.732097802038
  O        29.5618445237       17.0568104544        22.567645815838
  O        33.5931059231       16.2656418770       10.4087898658
  O        34.2652127064       18.1829042287        9.4036804040
  O        31.6453515500       18.3153864649       10.1601560315
  O        30.2903960254       15.1045210227        8.0691270412
  O        28.5491854964       21.0339767874        22.815160612138
  O        28.5092125210       20.9620924610        9.3279018124
  O        27.4508385820       18.6790464629       10.6553286686
  O        26.6906442281       16.9285580688        9.4148891346
  O        13.1462780490       18.6938383316       10.5861197265
  O        13.9177045327       16.9159232517        9.4038476093
  O        50.5956291623       19.3502747216        8.0204881876
  O        47.6824497180       16.3272970552       10.4175310118
  O        46.9508093138       18.1757886204        9.3251871929
  O        11.0689263131       17.0159324726        9.4895934525
  O        47.6747304240       16.3358467365        21.642631614838
  O        46.9244822325       18.2357529357        22.652692370638
  O        49.5685391739       18.3177698450        21.971999782638
  O        10.3186235316       15.1001660193        7.9970981606
  O        52.6707156270       21.0280475995        9.2418063371
  O        12.1468151848       20.8914075501        22.663085129238
  O        13.1048243206       18.6142904830        21.316050791138
  O        13.9551142742       16.9863527115        22.655160991538
  O        29.9930612292       14.4345576319       10.6599998387
  O        28.0679587903       14.6620532302        9.4824902769
  O        32.0772508107       16.8571575085        8.0615604315
  O        30.9548052270       20.9530541982       10.3333907768
  O        32.9556624291       20.5877865368        9.3273457671
  O        29.5684846260       17.0718645427        9.5753075079
  O        30.8631043655       20.8849770244        21.584119606438
  O        32.8607562601       20.5792458124        22.645573710938
  O        31.6046624659       18.2360039144        21.821847772138
  O        28.2330824642       18.6738941763        8.0669641907
  O        32.4951001555       14.2056288472        9.2466009701
  O        32.4035849203       14.2059898626        22.737922449138
  O        29.8302121497       14.4305067224        21.482092916038
  O        27.9564066603       14.5884324609        22.745036062838
  O        17.8891808558        1.9665597546       10.6628414487
  O        18.9561252976        3.5271902038        9.4080660029
  O        39.1684552078       34.1385412534        7.9972324047
  O        43.2801800378       33.0587687483       10.3317216112
  O        42.0343101056       31.5064250185        9.2415802068
  O        20.3174192654        1.0363153779        9.4802646480
  O        43.2760899957       33.1824788998        21.564677865138
  O        42.0052143720       31.5841025406        22.572826898738
  O        40.5790791994       33.7750430787        21.925884133738
  O        22.3671418250        1.3843432447        7.9980067172
  O        36.6727638686       35.0997513175        9.2332946857
  O        16.4455853947        0.0640806412        22.658012782538
  O        17.9363553849        2.0431694703        21.316193284938
  O        18.9188403352        3.5931443028        22.655655752338
  O        29.5764655910       18.9726281639        20.069475472938
  O        29.6099571427       19.0562037481       11.9889476654
  O        31.3527135719       15.9058989888        20.078217110138
  O        31.5571316645       16.1177970102       11.9949157883
  O        39.4568659966       35.2437267876        19.991800708438
  O        19.1415681765        0.0045205472       11.9905161936
  O        41.9694529110       35.1726396997        20.076961615538
  O        21.6912967622       -0.0693987501       11.8960453938
  O        51.3647904678       18.6143688689        19.995068095538
  O        10.7508652191       18.7472191047       11.9050135739
  O        50.0794689808       16.4127410145        20.081505874638
  O         9.5244097645       16.4831205598       11.9911788296
 Zr         9.2967994063       16.0528871576        22.171988745038
 Zr        49.8362806738       16.0068770919        9.7465836867
 Zr        22.0732839612        0.0296776048        22.179089580038
 Zr        42.4609096610       35.1534586489        9.8011136990
 Zr        29.5454658807       19.0937703826        22.229085941838
 Zr        29.5567492227       19.1922136264        9.8166190490
 Zr        11.0373652585       19.0524201721        9.8277218644
 Zr        11.0434229768       19.1551867868        22.240913427438
 Zr        31.3409255165       16.0527566923        9.8419925665
 Zr        31.3650482075       15.9758774470        22.258338093138
 Zr        18.6011716205       -0.0015538512        9.7636141290
 Zr        18.5065367489       -0.0080594792        22.203358160738
 Zr        12.3010456226       16.3232032574        23.980300621538
 Zr        48.6160207481       18.8329868386        8.0098885694
 Zr        20.3148994126        2.4732225712        23.980609036538
 Zr        40.6428930511       32.6868465637        23.968088206138
 Zr        28.3258242485       16.3369550159        8.0777072387
 Zr        32.6022189375       18.8273434877        8.0345262800
  H        29.8317549382       16.9931869548        17.978441756338
  H        31.8337943407       18.1567117943       13.8347008956
  H        30.0217082165       17.2323121889       14.1976219562
  H        31.3538321183       18.3676935032        18.102151360938
