     578
 i =      224, E =     -4812.1926544522
  C        11.8588526083       14.0535734072       13.7363704315
  C        12.4563792912       12.8906956089       13.0180154606
  C        11.7045443977       12.1714622037       12.0767122714
  C        12.2809144563       11.1092221794       11.3844172404
  C        13.6216127380       10.7397186439       11.6118737169
  C        14.3549885353       11.4436906919       12.5848807230
  C        13.7820966293       12.5087087610       13.2763225284
  C        14.2611107395        9.6490159750       10.8385046525
  C        14.2563290805        9.6568785047        9.4168200442
  C        13.7430764858       10.7589632639        8.6629440769
  C        49.1269313995       21.2331334071       13.8744918117
  C        48.5501649561       22.4011169716       13.1473829770
  C        49.3001539351       23.0684005691       12.1663623208
  C        48.7332196757       24.1075747765       11.4332031858
  C        47.4027371935       24.5093014170       11.6619414643
  C        46.6718076594       23.8604064939       12.6754481653
  C        47.2342650929       22.8154698929       13.4047448629
  C        46.7724324170       25.5869781503       10.8647079661
  C        46.7612506637       25.5572993888        9.4429639055
  C        47.2611049771       24.4421799732        8.6994788970
  C        14.8603154979        8.5705799931        8.7035590158
  C        14.8919699403        8.5971361134       11.5151591188
  C        49.1132703341       21.2034197786        2.1505252536
  C        48.5278591419       22.3647634055        2.8778133260
  C        49.2670637730       23.0254479160        3.8707401585
  C        48.6907298054       24.0600362670        4.6021744563
  C        47.3603453320       24.4568532866        4.3638622406
  C        46.6399619202       23.8119548254        3.3403136518
  C        47.2135252978       22.7760182518        2.6085863553
  C        46.7218513368       25.5318290751        5.1548661323
  C        46.7334347158       25.5281212120        6.5765741002
  C        47.2488124642       24.4288694127        7.3329385622
  C        40.6369880444       17.1698925793        7.3262771344
  C        40.6578197014       17.1871607224        4.5176271295
  C        11.8830518494       14.0865660627        2.2906558762
  C        12.4724488086       12.9108471896        2.9949533156
  C        11.7148310166       12.1773697810        3.9207602141
  C        12.2814607024       11.0949326503        4.5891537878
  C        13.6204133790       10.7215379557        4.3576145338
  C        14.3585548420       11.4374369430        3.3972088823
  C        13.7930841336       12.5185928085        2.7245275725
  C        14.2539702378        9.6247433039        5.1279968271
  C        14.2525601107        9.6446021827        6.5498302120
  C        13.7425664673       10.7534796993        7.2969120883
  C        22.5124402154        3.2440730294       13.7482014197
  C        23.2289017435        4.3477827249       13.0488010710
  C        24.2257764724        4.0646746834       12.1033795635
  C        24.8554974857        5.1021549736       11.4209621883
  C        24.5040800478        6.4448345493       11.6638884871
  C        23.5352987683        6.7194624633       12.6463167560
  C        22.9008667595        5.6837428105       13.3272118194
  C        25.1133035746        7.5490783005       10.8880757406
  C        25.0867814074        7.5412001618        9.4666096824
  C        24.3817924015        6.5438982396        8.7204328386
  C        38.3027963793       31.9296615060       13.8444279813
  C        37.5735959741       30.8391503894       13.1355963532
  C        36.6155188010       31.1413575706       12.1559802040
  C        35.9999367749       30.1197176557       11.4381478491
  C        36.3274421235       28.7710509628       11.6790107250
  C        37.2554237351       28.4762830939       12.6954096881
  C        37.8754341733       29.4966621873       13.4116735615
  C        35.7269404618       27.6784898550       10.8815899277
  C        35.7606786531       27.6930322268        9.4603476623
  C        36.4697411723       28.6938388890        8.7238894741
  C        25.7129483445        8.6092821174        8.7467767445
  C        25.7120300858        8.6229138251       11.5590136444
  C        38.3295662657       31.9624267343        2.1616113570
  C        37.6098355110       30.8885334633        2.9045895650
  C        36.6831954446       31.1962402209        3.9123548641
  C        36.0753966996       30.1768637102        4.6426281073
  C        36.3798731935       28.8246885819        4.3880429050
  C        37.2842756514       28.5269485538        3.3504265331
  C        37.8944155718       29.5428060493        2.6217329890
  C        35.7728499001       27.7248381891        5.1716916063
  C        35.7840837554       27.7167923007        6.5936080121
  C        36.4805898092       28.7054543997        7.3573834973
  C        46.1354457757       26.6207725766        7.2867033161
  C        46.0879751395       26.5802347164        4.4787933818
  C        22.4618156426        3.2558114074        2.2627325007
  C        23.1579913035        4.3633506336        2.9851588092
  C        24.1604064271        4.0750699522        3.9250514863
  C        24.7907102033        5.1036263760        4.6211659893
  C        24.4389892611        6.4503266628        4.4000862909
  C        23.4598040863        6.7318624737        3.4285261204
  C        22.8247751515        5.7035088248        2.7328739066
  C        25.0722965920        7.5467682764        5.1746802740
  C        25.0659975888        7.5396374206        6.5975028490
  C        24.3701076911        6.5442306002        7.3537951621
  C        26.6220730040       17.8599376929       13.7785026597
  C        25.3133529767       17.9035299281       13.0536728691
  C        25.0577321724       18.8934012942       12.0919504884
  C        23.8446549274       18.9128825928       11.4058885683
  C        22.8508214072       17.9453810656       11.6589859864
  C        23.1033984822       16.9777883175       12.6496556903
  C        24.3183949207       16.9531652763       13.3333889147
  C        21.5776154758       17.9294143975       10.8945511631
  C        21.5769002149       17.9035251271        9.4719866417
  C        22.7820089438       17.7765222298        8.7112303140
  C        34.4411187372       17.1984955569       13.9153355698
  C        35.7317320268       17.1579681813       13.1652618733
  C        35.9423272552       16.1953658049       12.1658379710
  C        37.1215573381       16.1941614517       11.4261888241
  C        38.1242836551       17.1524007835       11.6704944015
  C        37.9172368686       18.0955576445       12.6946096610
  C        36.7335728417       18.1039039043       13.4286082491
  C        39.3799646441       17.1665938805       10.8875862464
  C        39.3774218504       17.1885565274        9.4665823592
  C        38.1716374629       17.3174933462        8.7077695298
  C        20.3302790613       17.9213840302        8.7634545177
  C        20.3525588053       17.9351101406       11.5765406285
  C        34.4790881385       17.2463680395        2.1841920261
  C        35.7830540528       17.1775548673        2.9069105287
  C        35.9952387728       16.2042594274        3.8943987106
  C        37.1802693222       16.1940432349        4.6245724198
  C        38.1806978639       17.1557049268        4.3845787391
  C        37.9751949921       18.1031815430        3.3647288789
  C        36.7874463756       18.1192706621        2.6386480897
  C        39.4263636568       17.1803305599        5.1808336734
  C        39.4012455812       17.1967603532        6.6014378928
  C        38.1828708074       17.3197473153        7.3412639438
  C        35.1513766356       26.6385240272        7.2969456871
  C        35.1813262807       26.6553696184        4.4878985143
  C        26.5704590064       17.8219170182        2.3331148911
  C        25.2547314930       17.8708275350        3.0375839864
  C        24.9895486429       18.8742409069        3.9814695085
  C        23.7717231968       18.8978483209        4.6553013635
  C        22.7895523160       17.9180067327        4.4082092472
  C        23.0483447204       16.9402264636        3.4306593459
  C        24.2671078809       16.9143742438        2.7556761869
  C        21.5264765117       17.8972359454        5.1817951653
  C        21.5509633690       17.8858301326        6.6033002117
  C        22.7695104286       17.7681957055        7.3449286891
  C        14.0465124001       17.8283984316        2.2942470327
  C        15.3502528212       17.8839958227        3.0201674338
  C        15.6063866037       18.8847721352        3.9705004732
  C        16.8149610814       18.9035978591        4.6640401005
  C        17.8016031769       17.9245697086        4.4293591604
  C        17.5502252831       16.9482373079        3.4468528107
  C        16.3411019628       16.9246697924        2.7549858389
  C        19.0705435400       17.9057258731        5.1982093807
  C        19.0695894089       17.9011337547        6.6206583418
  C        17.8627720685       17.8019342153        7.3821638086
  C        46.8073603323       17.2205704437        2.1645931650
  C        45.5199559178       17.1661938704        2.9131679848
  C        45.3134538252       16.1956810676        3.9053512887
  C        44.1337118246       16.1879427876        4.6443989626
  C        43.1325187465       17.1506217870        4.4113186280
  C        43.3363401942       18.1006690708        3.3927573696
  C        44.5167314641       18.1126483883        2.6553391317
  C        41.8802125873       17.1717258811        5.1987706327
  C        41.8847209663       17.1766840723        6.6201046975
  C        43.0930165896       17.2684651652        7.3802206356
  C        20.3165720554       17.9112682338        7.3286159033
  C        20.2943915305       17.8869697366        4.5154632217
  C        46.7862757665       17.2315552277       13.8850789946
  C        45.4821597730       17.1298725071       13.1717259145
  C        45.2608415451       16.1384667767       12.2041561093
  C        44.0724716407       16.1207404082       11.4783760165
  C        43.0772295126       17.0913444568       11.7039493174
  C        43.2879417159       18.0506871098       12.7116258720
  C        44.4774158155       18.0751155067       13.4320132240
  C        41.8329302136       17.1262618054       10.9056340771
  C        41.8607212123       17.1516597866        9.4851969222
  C        43.0816812002       17.2538998804        8.7466293815
  C        46.1532428280       26.6371944768        8.7212496671
  C        46.1626061101       26.6561308629       11.5308769786
  C        14.0457742588       17.8316106957       13.7036619502
  C        15.3668369715       17.9055830689       13.0137136010
  C        15.6399455650       18.9188491617       12.0826751171
  C        16.8691073873       18.9551303815       11.4281321440
  C        17.8529269672       17.9773816101       11.6787984688
  C        17.5868173347       16.9935835416       12.6484810114
  C        16.3596388511       16.9565982699       13.3063880771
  C        19.1200005699       17.9504878430       10.9097206733
  C        19.0953112136       17.9227315968        9.4883816499
  C        17.8754060190       17.8115777169        8.7481376380
  C        28.8117500421       14.0935156117        2.3987850267
  C        28.2004299425       12.9173318871        3.0856042678
  C        28.9271803399       12.1754872069        4.0284988024
  C        28.3310568648       11.0978271739        4.6789499388
  C        26.9943505559       10.7392156248        4.4111772813
  C        26.2896211112       11.4617399981        3.4318289520
  C        26.8838115337       12.5388726478        2.7790369787
  C        26.3275758480        9.6578631049        5.1722711348
  C        26.3178718106        9.6822041780        6.5933756651
  C        26.8259579163       10.7928795337        7.3396651626
  C        32.1790359198       21.2414669137        2.1476026339
  C        32.7759934606       22.4073797415        2.8677551848
  C        32.0261080854       23.0926996064        3.8356879786
  C        32.5979178427       24.1302855140        4.5655645927
  C        33.9357199089       24.5114856819        4.3465293937
  C        34.6687657480       23.8452098268        3.3467932768
  C        34.0990114927       22.8013989204        2.6198996847
  C        34.5653696365       25.5861806405        5.1470443498
  C        34.5564781656       25.5569656477        6.5683863878
  C        34.0425679417       24.4434228330        7.3055645569
  C        25.7065349955        8.6051816206        7.3120967629
  C        25.6885598163        8.6085896727        4.4988185007
  C        32.1017403881       21.2238970140       13.8784025005
  C        32.6953032327       22.3727094898       13.1296246925
  C        31.9603414014       23.0354856633       12.1346570979
  C        32.5416692598       24.0652679635       11.3981870100
  C        33.8715094432       24.4626146861       11.6392010715
  C        34.5895980590       23.8124597321       12.6608874248
  C        34.0130148857       22.7770869835       13.3922410303
  C        34.5119164162       25.5448899306       10.8566837000
  C        34.5285668372       25.5363143507        9.4349938130
  C        34.0288263484       24.4341591672        8.6721071648
  C        40.6246224103       17.1612865630        8.7600128503
  C        40.6016234143       17.1521810948       11.5694498874
  C        28.7458222610       14.0666716762       13.8168309377
  C        28.1364530898       12.9175522070       13.0785482867
  C        28.8810561703       12.2099396106       12.1226635449
  C        28.3038628632       11.1528637196       11.4224844416
  C        26.9654862871       10.7763156454       11.6548347009
  C        26.2376492421       11.4712792676       12.6383495149
  C        26.8137682979       12.5292841372       13.3395574846
  C        26.3267758585        9.6837799394       10.8817662472
  C        26.3195957939        9.6949921886        9.4601061196
  C        26.8252626961       10.7998917212        8.7055126082
  C        18.1354087910        3.1811379461        2.3222525891
  C        17.4061078757        4.2783555971        3.0207695947
  C        16.3904152035        4.0000270088        3.9483474400
  C        15.7427703021        5.0400376674        4.6118535747
  C        16.0947213552        6.3837605604        4.3721552061
  C        17.0840778960        6.6532390586        3.4083530529
  C        17.7331100158        5.6158780524        2.7432809587
  C        15.4704289351        7.4914366085        5.1352436954
  C        15.4856084880        7.4906470277        6.5569608297
  C        16.1872380763        6.4970607755        7.3101099682
  C        42.9459088548       31.8595832022        2.0780594567
  C        43.6462808220       30.7719171806        2.8220275420
  C        44.5916255288       31.0932646332        3.8082694179
  C        45.1973402196       30.0877302733        4.5559435340
  C        44.8711360724       28.7346398206        4.3408956452
  C        43.9455125417       28.4202697394        3.3274982880
  C        43.3366983035       29.4254049955        2.5794491670
  C        45.4886832655       27.6553215464        5.1440821133
  C        45.4927769883       27.6809217593        6.5657806115
  C        44.8057244768       28.6889836075        7.3124255851
  C        14.8565789439        8.5630877739        7.2693458168
  C        14.8752397252        8.5632760002        4.4566698785
  C        42.9465498971       31.9616507017       13.8039315068
  C        43.6919217941       30.8855314185       13.0905757249
  C        44.6563092952       31.1914527375       12.1180730965
  C        45.2778444404       30.1718679656       11.4003442267
  C        44.9542835441       28.8215257358       11.6381674000
  C        44.0211017737       28.5238499511       12.6492351319
  C        43.3928416311       29.5406132779       13.3614120717
  C        45.5632065515       27.7241043061       10.8528684066
  C        45.5333637941       27.7173873273        9.4315678372
  C        44.8270330976       28.7076182256        8.6786135672
  C        35.1383737268       26.6272209881        8.7315786119
  C        35.1215521839       26.6030310706       11.5413064374
  C        18.1487014027        3.2471097802       13.7014409935
  C        17.4302272806        4.3439021676       12.9921147368
  C        16.4150109360        4.0526407213       12.0685305248
  C        15.7666939238        5.0832899866       11.3931929502
  C        16.1213452624        6.4285311965       11.6159792955
  C        17.1127832654        6.7118894420       12.5731796244
  C        17.7604665995        5.6829645220       13.2529006940
  C        15.4907847863        7.5241995377       10.8435609555
  C        15.4966092633        7.5075177189        9.4224298396
  C        16.1934513126        6.5058731047        8.6757188651
  H        10.6723079217       12.4653449285       11.8999547491
  H        11.6945372062       10.5504627149       10.6581697054
  H        15.3921715158       11.1694557359       12.7662759799
  H        14.3517460886       13.0722864300       14.0113320884
  H        13.3760113407       11.6310399507        9.1962696220
  H        50.3228436574       22.7483346576       11.9815780467
  H        49.3196833957       24.6228697621       10.6756352840
  H        45.6423595862       24.1612541980       12.8587333119
  H        46.6633477093       22.2902129135       14.1668877733
  H        47.6296544534       23.5758245546        9.2411665241
  H        14.8724705739        8.5884946992       12.6034675969
  H        50.2871153814       22.7025985614        4.0656466426
  H        49.2691101133       24.5755113446        5.3656797411
  H        45.6105929862       24.1092713520        3.1511665077
  H        46.6527919181       22.2538755451        1.8369605143
  H        47.6075855058       23.5517648548        6.8020165025
  H        40.6652352744       17.1480796872        3.4300753812
  H        48.6870632518       14.0949984785       15.7949330585
  H        10.6812441205       12.4661910527        4.0978710042
  H        11.6896050291       10.5242957210        5.3015923560
  H        15.3941493445       11.1599260574        3.2116410897
  H        14.3655822664       13.0882772112        1.9963610891
  H        13.3757258576       11.6220775272        6.7582727588
  H        47.9302508015       14.2182806370        1.7160531998
  H        47.7800877163       14.3736021180       14.4900604203
  H        49.0846289392       18.5527416589        2.8727400890
  H        10.4162748261       14.1342393798        0.0037605734
  H        24.4846150504        3.0253555890       11.9137982745
  H        25.6286859019        4.8825986225       10.6878903314
  H        23.2568343292        7.7532481125       12.8401026199
  H        22.1307413320        5.8863575419       14.0674712908
  H        23.8185752979        5.7885956045        9.2607160244
  H        36.3785501473       32.1842656255       11.9591124572
  H        35.2569334014       30.3572212125       10.6799872397
  H        37.5156641281       27.4375796897       12.8882738798
  H        38.6180246741       29.2774742254       14.1752045071
  H        37.0362924332       29.4419845242        9.2706589400
  H        25.7447101885        8.6071512796       12.6469113922
  H        36.4603195161       32.2402555123        4.1206938818
  H        35.3513840705       30.4207299909        5.4169369030
  H        37.5311894320       27.4869833208        3.1473817056
  H        38.6154243603       29.3183174065        1.8394974265
  H        37.0565277090       29.4620958355        6.8323396222
  H        46.1095301252       26.5876953769        3.3907531857
  H        44.6683730193       35.1162320145       15.8088419441
  H        24.4363623678        3.0362769283        4.0915433439
  H        25.5715483661        4.8728948668        5.3427204321
  H        23.1767972754        7.7670140499        3.2485484310
  H        22.0530452480        5.9184191442        1.9973071536
  H        23.7974257001        5.7896501634        6.8224060894
  H        44.9540542812       34.3905279286        1.7003270325
  H        44.9019114035       34.2068286620       14.4855716769
  H        40.6663036823       33.2094544425        2.8583893621
  H        23.1505100631        1.9579939786        0.0103995873
  H        25.8240928020       19.6405012721       11.8979245185
  H        23.6511586356       19.6870867477       10.6664119443
  H        22.3484565074       16.2212851001       12.8541829935
  H        24.5244675215       16.1923116947       14.0826718225
  H        23.7223383791       17.6561073196        9.2412911940
  H        35.1685151545       15.4543300857       11.9805076439
  H        37.2842915052       15.4399500021       10.6592776435
  H        38.6844386993       18.8428239481       12.8868416237
  H        36.5555785940       18.8455737057       14.2039317273
  H        37.2329090769       17.4425375639        9.2397469835
  H        20.3595384700       17.9789650829       12.6642497722
  H        35.2122262518       15.4737692351        4.0847480723
  H        37.3454497197       15.4364779452        5.3876171740
  H        38.7426884293       18.8508880767        3.1755885883
  H        36.6044015548       18.8681821339        1.8716807784
  H        37.2528668581       17.4454225704        6.7943704833
  H        35.1534557356       26.6819190420        3.4002312406
  H        28.5027164553       21.0698963221       15.9658054754
  H        25.7505731304       19.6279723550        4.1695349998
  H        23.5657812436       19.6794530220        5.3833757497
  H        22.2979840050       16.1772376363        3.2337405165
  H        24.4838578680       16.1474710788        2.0158549022
  H        23.7003979569       17.6412794297        6.8002612025
  H        29.0231191949       21.7100292368        1.7537660657
  H        29.1827732490       21.7243996560       14.6296749286
  H        32.1202293143       18.5411536827        2.9821910682
  H        27.3706058383       19.0187170634        0.0813772563
  H        14.8479255714       19.6434243977        4.1502750460
  H        17.0099875232       19.6857772212        5.3945731038
  H        18.3016696317       16.1846563311        3.2565138950
  H        16.1354404124       16.1575258710        2.0122649926
  H        16.9201861395       17.6856846185        6.8551968575
  H        46.0942509779       15.4616369966        4.0900860858
  H        43.9721523486       15.4280753088        5.4057910310
  H        42.5702317349       18.8512852663        3.2100142667
  H        44.6925814707       18.8600835204        1.8853617039
  H        44.0355134217       17.3809969245        6.8519881894
  H        20.2880969110       17.9187053369        3.4273806676
  H        46.0357923071       15.3974063679       12.0219011167
  H        43.9028375010       15.3526085444       10.7270100165
  H        42.5235232773       18.8035129100       12.8923036664
  H        44.6632720620       18.8354486852       14.1865026523
  H        44.0154971379       17.3540724228        9.2922001438
  H        46.1996406468       26.6827334419       12.6183140609
  H        52.7412914489       21.0625763014        0.1998073160
  H        14.8790808675       19.6716227553       11.8885697713
  H        17.0799609472       19.7436208763       10.7088865894
  H        18.3379472521       16.2326158441       12.8500453261
  H        16.1388573385       16.1838854042       14.0387179345
  H        16.9422256191       17.7027735137        9.2925595623
  H        52.3224699776       21.6733236448       14.2891617026
  H        52.0130629956       21.7019482759        1.5006369446
  H        49.0680141331       18.6077418574       13.1988992537
  H        13.2480581843       19.0159305846       15.9722948222
  H        29.9568398702       12.4585202303        4.2363939483
  H        28.8962953428       10.5201362968        5.4071921031
  H        25.2568029324       11.1944959825        3.2177993727
  H        26.3382158292       13.1177786464        2.0378540217
  H        27.1903689623       11.6604990405        6.7980255237
  H        30.9966597305       22.7872761685        4.0066287087
  H        32.0121046349       24.6616812713        5.3123934938
  H        35.7042163328       24.1307421344        3.1726415358
  H        34.6695251174       22.2606397737        1.8681729439
  H        33.6811902326       23.5773270692        6.7583289512
  H        25.7166242320        8.5907860295        3.4107297150
  H        30.9347565385       22.7254089739       11.9477698145
  H        31.9649123003       24.5820639918       10.6341853745
  H        35.6190688982       24.1082196526       12.8523461166
  H        34.5715112103       22.2531702098       14.1645296904
  H        33.6577584128       23.5604822989        9.2002044919
  H        40.5925754991       17.1058469723       12.6567549357
  H        32.5088291507       14.1488482833        0.2635044726
  H        29.9152157725       12.5026772728       11.9537702310
  H        28.8882982895       10.5978763881       10.6916066869
  H        25.2022984114       11.1928936400       12.8241822046
  H        26.2492410841       13.0816550873       14.0871442407
  H        27.1875407043       11.6729949568        9.2403544641
  H        33.3105422661       14.2263457188       14.4635015502
  H        33.4095734533       14.4070869101        1.6070376625
  H        32.1161797798       18.5454004802       13.2348563609
  H        30.2157555524       14.1887159719        0.0827638169
  H        16.1183287974        2.9635292174        4.1347403120
  H        14.9533337999        4.8207078790        5.3275469766
  H        17.3665777465        7.6860977852        3.2152564208
  H        18.5151598222        5.8185605278        2.0154541611
  H        16.7539676229        5.7398418193        6.7766126533
  H        44.8277699502       32.1403657515        3.9825614489
  H        45.9370994786       30.3415135398        5.3119857129
  H        43.6830655479       27.3781664993        3.1571922262
  H        42.6002998997       29.1900649313        1.8145707476
  H        44.2304475848       29.4368123699        6.7741161369
  H        14.8516543502        8.5466570177        3.3684438505
  H        44.8997156780       32.2341508425       11.9264945944
  H        46.0246109546       30.4131216837       10.6469685053
  H        43.7644452668       27.4840928425       12.8410564926
  H        42.6466324345       29.3178181087       14.1201385393
  H        44.2686173658       29.4705814943        9.2131924156
  H        35.0778704272       26.6152722437       12.6287249533
  H        36.6052995763       35.1341577418        0.1856918437
  H        16.1439288045        3.0130641170       11.8987958569
  H        14.9743592520        4.8564898798       10.6830988897
  H        17.3963536072        7.7473412615       12.7500391493
  H        18.5434118333        5.8934562214       13.9775662380
  H        16.7650466250        5.7557481496        9.2141511741
  H        36.2789695468       34.4823397369       14.2680524338
  H        36.3814864219       34.2089670034        1.5045440874
  H        40.5805986288       33.2029503857       13.1483118071
  H        17.4710425780        1.9480716929       15.9690364854
  H        28.8800356671       19.1580400076        4.4570421346
  H        29.8592918266       19.6359891388       11.6033390740
  H        32.2475463421       15.9922446555       11.7179468201
  H        31.2519628878       15.6472148004        4.5204483389
  H        28.2414710699       17.7150852122        6.8332807330
  H        29.5675179892       15.1775068585        6.4288852205
  H        31.6643190221       20.0533874754        9.6801213000
  H        33.2276118834       17.3377274719        9.4289892928
  H        29.0251499740       16.7004652031        9.2724650893
  H        18.8536712114        0.8690636750        4.3403612974
  H        40.5282057332       35.2290551984       11.9468605431
  H        42.3244795924       34.4193345328       11.5850096873
  H        22.0874915078        0.6918399169        4.3569170618
  H        11.5968916454       18.7128405401        4.3876503046
  H        52.2649348930       18.4311750871       11.6720848707
  H        49.2552726927       16.4767338707       11.5793455642
  H        10.1502545379       15.7982378654        4.2979271550
  H        50.8501658541       17.6924333208       11.9490689814
  H        10.0462007816       17.3945334606        4.0570237951
  H        20.2149869588        0.0021875455        4.0470268361
  H        39.1839574919       36.1247503229       11.6814949565
  H        32.3400802851       18.4658274213        6.8277132968
 Ni        30.9455202719       17.7190478798       10.8237994328
 Ni        31.3262933459       16.2770352623        7.9161884351
 Ni        30.0579709138       18.9145410506        8.0778105640
 Ni        30.3075565128       17.5448664912        5.3290020293
  O        10.6499927292       14.3650777461       13.4807151864
  O        12.6131792192       14.6574625238       14.5787872194
  O        49.1481883237       16.8457999719       15.9845962352
  O        50.3503220403       20.9358641680       13.6428898261
  O        48.3486115684       20.5934011313       14.6607811033
  O        11.0518354471       17.0537412296       14.4956135307
  O        50.3210674885       20.8817300010        2.4119845702
  O        48.3467999510       20.5868334453        1.3322794667
  O        49.5438920899       18.2483955723        2.0733513133
  O        12.3593359394       18.6246686683        0.0048149111
  O        48.6932711660       14.1485906205       14.7461990941
  O         8.2099278464       14.2103239079        1.3276726356
  O        10.7353807441       14.5067314157        2.6694044975
  O        12.5718320598       14.5827808249        1.3335899469
  O        22.8444086227        2.0426197435       13.4822655617
  O        21.6057205644        3.5922903079       14.5843485650
  O        42.0583669286       34.1375465023       15.9739194146
  O        37.9817466170       33.1376320263       13.5673138930
  O        39.2183417420       31.5762113169       14.6617836519
  O        20.3084571343        1.0397224135       14.4971064036
  O        38.0247130114       33.1858416463        2.4203334223
  O        39.2193367745       31.5838618153        1.3313929422
  O        40.6523480176       33.7694907776        2.0653133877
  O        18.2556494327        1.3767736271        0.0018870239
  O        44.6222300416       35.1005378678       14.7536670334
  O        24.2054433899       -0.0000140631        1.3258451265
  O        22.7530154275        2.0574381050        2.5888646170
  O        21.6247506296        3.5962779996        1.3483610582
  O        27.4941826104       18.7517641407       13.4929220501
  O        26.7637085833       16.9298217575       14.6474999716
  O        30.6358337716       19.3545891248        0.0801080778
  O        33.5907308158       16.2752485930       13.6604526319
  O        34.2759712312       18.1677134908       14.7315136075
  O        29.5746857568       17.0546816343       14.5675699090
  O        33.6231685399       16.3296467169        2.4165798351
  O        34.3055191838       18.2482456446        1.4107092530
  O        31.6531303438       18.3183072780        2.1609500861
  O        30.3200099460       15.1540970039        0.0921870467
  O        28.5544483269       21.0291536918       14.8967711726
  O        28.5127993525       20.9539867424        1.4170432533
  O        27.4592643419       18.6748536836        2.6705888892
  O        26.6922783833       16.9273276725        1.4222005106
  O        13.1487333538       18.6928739119        2.5925408030
  O        13.9191897647       16.9161699796        1.4100133940
  O        50.5966741505       19.3503052304        0.0255449312
  O        47.6836571716       16.3269673987        2.4223597646
  O        46.9528790426       18.1761875071        1.3288634959
  O        11.0699290083       17.0154251996        1.4947336416
  O        47.6758126269       16.3355560519       13.6477494605
  O        46.9288770209       18.2358410861       14.6604435577
  O        49.5689917115       18.3176957411       13.9771473346
  O        10.3187315762       15.1000614433        0.0022023610
  O        52.6707745509       21.0278957948        1.2469315915
  O        12.1468411506       20.8912356286       14.6681574084
  O        13.1082443358       18.6135793936       13.3205242916
  O        13.9570910706       16.9870160902       14.6603890493
  O        29.9943275309       14.4442684647        2.7390076320
  O        28.0894282354       14.6529404790        1.5019688500
  O        32.1404063201       16.8487589831        0.0900114289
  O        30.9657526000       20.9541551602        2.4140968051
  O        32.9456671361       20.6039604466        1.3426673287
  O        29.5672019994       17.0740009968        1.5842662946
  O        30.8707312501       20.9452675617       13.6581633124
  O        32.8763802002       20.5858571430       14.6634107770
  O        31.6891236927       18.2535549592       14.0551925056
  O        28.2601479447       18.6305007453        0.0847532221
  O        32.4929322145       14.2128878127        1.3371034509
  O        32.4064089852       14.2133860450       14.8194574099
  O        29.9162741844       14.4363981790       13.4864855442
  O        28.0366986090       14.5880076499       14.7482654077
  O        17.8892703470        1.9666964041        2.6678939942
  O        18.9562920219        3.5272040577        1.4130880967
  O        39.1685902121       34.1389205132        0.0022909869
  O        43.2802207790       33.0589980038        2.3368007056
  O        42.0345395473       31.5064678101        1.2467433349
  O        20.3177740563        1.0369120618        1.4851364206
  O        43.2761001849       33.1826105333       13.5697858692
  O        42.0052633569       31.5841442144       14.5778615355
  O        40.5790620635       33.7751544042       13.9307672361
  O        22.3674267382        1.3847286403        0.0030632674
  O        36.6728097680       35.0998091857        1.2383669661
  O        16.4456430842        0.0643306673       14.6631891224
  O        17.9365129250        2.0433980446       13.3213121674
  O        18.9191058219        3.5931789786       14.6608038111
  O        29.9076049395       18.8269262476       12.1473050349
  O        29.7773709609       19.0537402610        4.0811584108
  O        31.3908956767       16.2689179696       12.0898055574
  O        31.3494469467       16.4737407289        4.0008320808
  O        32.4457764577       16.7840487701        9.5801576899
  O        29.8825402112       17.1414220290        9.1559410315
  O        30.3813091856       15.6945006965        6.3284491099
  O        31.4765888908       18.0297359586        6.9119321213
  O        30.8777709613       19.4902732026        9.7406955133
  O        28.8864360606       18.3921969687        6.5751587512
  O        39.4569266796       35.2439923320       11.9968554477
  O        19.1414690491        0.0045633878        3.9956192063
  O        41.9695083250       35.1726677755       12.0820305755
  O        21.6911506522       -0.0695526206        3.9011226770
  O        51.3651248827       18.6142771971       12.0002599095
  O        10.7511193285       18.7471797730        3.9100628239
  O        50.0796959393       16.4127349920       12.0866059401
  O         9.5244209506       16.4830917151        3.9963231350
 Zr         9.2975039419       16.0526902367       14.1774111142
 Zr        49.8368539175       16.0065380753        1.7513977386
 Zr        22.0734482431        0.0303480022       14.1838167771
 Zr        42.4611942185       35.1539563992        1.8061994281
 Zr        29.5922158823       19.0787998307       14.2744261468
 Zr        29.5722149796       19.1668893224        1.8820227501
 Zr        11.0386950610       19.0517254232        1.8328996903
 Zr        11.0446337937       19.1545847338       14.2457422987
 Zr        31.3536112814       16.1056284210        1.8882292065
 Zr        31.3867229857       16.0067152697       14.2769776861
 Zr        18.6014477971       -0.0006636872        1.7683989246
 Zr        18.5068436997       -0.0069927343       14.2086977458
 Zr        12.3027622085       16.3235816136       15.9851138736
 Zr        48.6176573160       18.8332448465        0.0152919643
 Zr        20.3156634792        2.4742868639       15.9854702524
 Zr        40.6440168612       32.6877474792       15.9731302773
 Zr        28.3453537904       16.3352590145        0.0858524880
 Zr        32.6179146090       18.8281966236        0.0690671895
  O        30.4168162419       20.7323293722        6.9019151792
  H        30.2904498414       20.3796680010        5.9894655469
  H        29.6921466308       21.3703517282        7.0157488519
  O        32.0956346741       14.4315656965        8.7496708349
  H        32.4737924696       15.1012968293        9.3995720642
  H        31.4736000847       13.8801004326        9.2544636823
