     584
 i =      758, E =     -4846.6835288103
  C        11.8587956828       14.0534651267       13.7364368271
  C        12.4562750189       12.8905496736       13.0181822356
  C        11.7045562799       12.1715783911       12.0765757104
  C        12.2809405236       11.1093864470       11.3842287593
  C        13.6215494659       10.7396621173       11.6119163064
  C        14.3547333868       11.4432726004       12.5853509623
  C        13.7818439738       12.5082505222       13.2768494979
  C        14.2610824070        9.6489990315       10.8385191018
  C        14.2564189490        9.6569504878        9.4168198247
  C        13.7432184513       10.7590654069        8.6629218838
  C        49.1269568748       21.2332394528       13.8745372192
  C        48.5502563475       22.4012093563       13.1475057295
  C        49.3002216451       23.0684125404       12.1663740737
  C        48.7332863770       24.1075682168       11.4331933525
  C        47.4028034765       24.5093591199       11.6619626404
  C        46.6719496323       23.8606531458       12.6756731877
  C        47.2344056147       22.8157389401       13.4050041217
  C        46.7724952824       25.5870199186       10.8646913261
  C        46.7614578796       25.5573648123        9.4429237629
  C        47.2614045704       24.4422748844        8.6994170264
  C        14.8603707876        8.5706234494        8.7035504187
  C        14.8918557228        8.5970449553       11.5151658132
  C        49.1133468555       21.2035160563        2.1505219802
  C        48.5280097525       22.3649126096        2.8776123834
  C        49.2671447076       23.0254242447        3.8707366541
  C        48.6908121385       24.0599878877        4.6021751728
  C        47.3604929127       24.4569803044        4.3637530549
  C        46.6402233125       23.8123300521        3.3399524893
  C        47.2137611849       22.7764151114        2.6081693182
  C        46.7219893701       25.5319057906        5.1547744204
  C        46.7336571208       25.5281879786        6.5764766136
  C        47.2491227263       24.4289863843        7.3328609154
  C        40.6354916058       17.1452599830        7.3273007697
  C        40.6542287634       17.1731565655        4.5182798553
  C        11.8830395051       14.0865226034        2.2906592142
  C        12.4723468691       12.9107407512        2.9948308262
  C        11.7148573108       12.1775195277        3.9209388716
  C        12.2814496587       11.0950688005        4.5893343082
  C        13.6203022793       10.7214048165        4.3575637566
  C        14.3582456719       11.4369601290        3.3967196931
  C        13.7928031715       12.5181347071        2.7240525028
  C        14.2539263336        9.6246553246        5.1279596599
  C        14.2526198628        9.6446326298        6.5497964411
  C        13.7427113753       10.7535604246        7.2968774838
  C        22.5128740661        3.2441674044       13.7481043919
  C        23.2304716148        4.3479880268       13.0487889228
  C        24.2284105075        4.0645948518       12.1045357626
  C        24.8592043706        5.1016822097       11.4221955509
  C        24.5078962465        6.4446083526       11.6640007414
  C        23.5380873202        6.7196096886       12.6453714763
  C        22.9026694491        5.6842115221       13.3261442817
  C        25.1168416208        7.5488886118       10.8872837861
  C        25.0879911035        7.5412529322        9.4656912111
  C        24.3837093116        6.5428736602        8.7202534457
  C        38.3031432562       31.9293667320       13.8436612901
  C        37.5752238213       30.8390284805       13.1338321809
  C        36.6194227912       31.1410699581       12.1518752793
  C        36.0047616353       30.1193256675       11.4334069107
  C        36.3307542228       28.7705249572       11.6758743753
  C        37.2565441203       28.4760434451       12.6944558078
  C        37.8758034293       29.4964671006       13.4112542872
  C        35.7306290163       27.6774297296       10.8788627162
  C        35.7654378823       27.6904360453        9.4576456647
  C        36.4745371941       28.6907462139        8.7206646804
  C        25.7112658740        8.6104264706        8.7448562222
  C        25.7164999068        8.6231018836       11.5569487437
  C        38.3290607147       31.9620288009        2.1613204703
  C        37.6090859108       30.8877817465        2.9029860307
  C        36.6837013802       31.1943272156        3.9123095720
  C        36.0764923894       30.1741158279        4.6418660826
  C        36.3802998721       28.8220742864        4.3853384844
  C        37.2828108659       28.5256011541        3.3456383024
  C        37.8923873640       29.5422347304        2.6175902700
  C        35.7750104010       27.7214061902        5.1691817459
  C        35.7880231151       27.7129884332        6.5910944235
  C        36.4849030620       28.7018803433        7.3541507720
  C        46.1356030752       26.6207900241        7.2866226645
  C        46.0880138605       26.5802669824        4.4787383520
  C        22.4612150871        3.2553538637        2.2624388941
  C        23.1569310924        4.3630166213        2.9850813386
  C        24.1608361216        4.0748723111        3.9232961039
  C        24.7908920910        5.1035548705        4.6193958136
  C        24.4370225731        6.4497876348        4.3995727635
  C        23.4561411539        6.7312853590        3.4298222005
  C        22.8215006168        5.7027849761        2.7341967863
  C        25.0699554131        7.5465302323        5.1737278743
  C        25.0642923064        7.5395928755        6.5965190658
  C        24.3706772214        6.5431447585        7.3535652348
  C        26.6211333474       17.8589202393       13.7795945460
  C        25.3122984543       17.9036696064       13.0542645458
  C        25.0546733869       18.8994569361       12.0987298871
  C        23.8422593227       18.9199962337       11.4112327691
  C        22.8507827078       17.9479261893       11.6577415101
  C        23.1052746014       16.9750221364       12.6424152659
  C        24.3197624990       16.9493419312       13.3272813367
  C        21.5773352003       17.9333325538       10.8936241750
  C        21.5769399085       17.9079847303        9.4713087063
  C        22.7822209467       17.7813433605        8.7107040169
  C        34.4412061407       17.1968849140       13.9151776247
  C        35.7329551687       17.1507305637       13.1676446980
  C        35.9395784169       16.1848860904       12.1705100623
  C        37.1200164900       16.1770154765       11.4328206822
  C        38.1254865778       17.1329067980       11.6744288109
  C        37.9214857558       18.0798770107       12.6957371674
  C        36.7377700223       18.0938116757       13.4295668653
  C        39.3802489057       17.1439031271       10.8899292089
  C        39.3768947340       17.1612121753        9.4687553742
  C        38.1698520660       17.2842805847        8.7106660101
  C        20.3305020069       17.9250727389        8.7626264268
  C        20.3524303822       17.9382674383       11.5758155302
  C        34.4753517705       17.2489651036        2.1844843018
  C        35.7781158218       17.1759703321        2.9108499786
  C        36.0001083596       16.1817031850        3.8758422109
  C        37.1849021096       16.1662292437        4.6070039519
  C        38.1763213250       17.1427710067        4.3889641138
  C        37.9609542132       18.1117240407        3.3921764737
  C        36.7733681650       18.1329837621        2.6655498285
  C        39.4237747645       17.1608586086        5.1831768378
  C        39.3993045404       17.1698205656        6.6034341851
  C        38.1808304005       17.2862175454        7.3441694206
  C        35.1565119187       26.6343565349        7.2949743218
  C        35.1830469776       26.6518905428        4.4859182701
  C        26.5720498193       17.8220822444        2.3330025534
  C        25.2566166751       17.8712005759        3.0385787953
  C        24.9917301316       18.8758312817        3.9812965421
  C        23.7736179122       18.9008151359        4.6546884111
  C        22.7911290767       17.9210994973        4.4082837884
  C        23.0498403293       16.9418059136        3.4322752416
  C        24.2688239182       16.9147226473        2.7576747050
  C        21.5276427596       17.9012556308        5.1812620778
  C        21.5516427056       17.8901620449        6.6026658247
  C        22.7702516783       17.7729163899        7.3444561537
  C        14.0465804257       17.8285323533        2.2941563393
  C        15.3506711343       17.8846304739        3.0198680955
  C        15.6070503009       18.8861878701        3.9692928673
  C        16.8158276184       18.9057000274        4.6625499840
  C        17.8024923895       17.9266156200        4.4283451991
  C        17.5509283989       16.9494374141        3.4467533581
  C        16.3415462336       16.9251916902        2.7552407907
  C        19.0715606962       17.9085152554        5.1972295339
  C        19.0703283612       17.9037671618        6.6196875974
  C        17.8634689900       17.8036647906        7.3810563803
  C        46.8068322045       17.2200489941        2.1646158874
  C        45.5186720790       17.1631927367        2.9126878542
  C        45.3125870635       16.1896179861        3.9020540764
  C        44.1324031285       16.1779740664        4.6404064627
  C        43.1298636742       17.1400175389        4.4101713884
  C        43.3333105363       18.0934083115        3.3945814182
  C        44.5141744943       18.1090725895        2.6575096046
  C        41.8774578552       17.1564794241        5.1982837109
  C        41.8826511493       17.1571795900        6.6198408624
  C        43.0911916195       17.2507943289        7.3794121391
  C        20.3171731115       17.9149460730        7.3278232590
  C        20.2955869960       17.8905594612        4.5147691284
  C        46.7863696932       17.2313011529       13.8851173496
  C        45.4826157576       17.1275108031       13.1713018783
  C        45.2625277824       16.1322340490       12.2073987693
  C        44.0744017814       16.1104933440       11.4814336549
  C        43.0782572649       17.0808429720       11.7034262330
  C        43.2878682564       18.0447180155       12.7069496861
  C        44.4772205820       18.0731191369       13.4275416392
  C        41.8334532864       17.1100805936       10.9057140042
  C        41.8603184982       17.1318378395        9.4852669515
  C        43.0805543199       17.2361171278        8.7458132996
  C        46.1533485715       26.6371918728        8.7211699029
  C        46.1625042081       26.6561363623       11.5308212611
  C        14.0457616014       17.8317632061       13.7037053389
  C        15.3668571505       17.9059649928       13.0133678665
  C        15.6397077741       18.9197396963       12.0827991580
  C        16.8687282372       18.9565388707       11.4279534983
  C        17.8526956797       17.9788319759       11.6780220825
  C        17.5868620523       16.9943748248       12.6471003807
  C        16.3597735513       16.9568804134       13.3052517074
  C        19.1198842426       17.9529245089       10.9089262704
  C        19.0954756610       17.9253172285        9.4875290222
  C        17.8757589555       17.8132850520        8.7470545144
  C        28.8076411668       14.0930702386        2.3972314484
  C        28.1968694858       12.9177424237        3.0848261960
  C        28.9218958996       12.1784598887        4.0310964210
  C        28.3252043886       11.1006487802        4.6806281272
  C        26.9898964118       10.7398993388        4.4089991325
  C        26.2868537346       11.4602770679        3.4267781696
  C        26.8814923925       12.5374081466        2.7746321179
  C        26.3229123448        9.6587060817        5.1697621976
  C        26.3123765418        9.6839675267        6.5906457487
  C        26.8166843170       10.7969710501        7.3358149580
  C        32.1802108461       21.2400409811        2.1450336748
  C        32.7766766720       22.4061525179        2.8640280459
  C        32.0305149902       23.0839435802        3.8402307527
  C        32.6031090352       24.1203901217        4.5710254957
  C        33.9377805303       24.5082024005        4.3447054923
  C        34.6666135173       23.8497511923        3.3364041864
  C        34.0963804840       22.8069617965        2.6085982083
  C        34.5685856509       25.5819604033        5.1454818343
  C        34.5616968802       25.5522426270        6.5670268656
  C        34.0493541027       24.4385963755        7.3049747341
  C        25.7035186001        8.6062786180        7.3102809353
  C        25.6851333155        8.6083511807        4.4970161549
  C        32.1033174334       21.2254244606       13.8765330819
  C        32.6957577538       22.3750598445       13.1301691979
  C        31.9655755043       23.0279925694       12.1252940848
  C        32.5472723244       24.0578339861       11.3894664924
  C        33.8728651822       24.4635682851       11.6394385803
  C        34.5860528905       23.8227750648       12.6707381720
  C        34.0089893395       22.7881276163       13.4024304563
  C        34.5149048390       25.5438754075       10.8556700395
  C        34.5340138371       25.5330972594        9.4337642301
  C        34.0357773838       24.4298581137        8.6715434685
  C        40.6236814539       17.1365897099        8.7610984367
  C        40.6027388700       17.1347380618       11.5704220826
  C        28.7452158850       14.0682621937       13.8160245327
  C        28.1363711768       12.9212290145       13.0735891857
  C        28.8783459887       12.2218219751       12.1088266031
  C        28.3012423234       11.1647849551       11.4079572967
  C        26.9665563885       10.7793196335       11.6491748770
  C        26.2422865475       11.4666902828       12.6405267832
  C        26.8176312505       12.5251047184       13.3417277999
  C        26.3279177517        9.6853713420       10.8784114470
  C        26.3165777903        9.6973390442        9.4570359111
  C        26.8164490695       10.8040783070        8.7013822163
  C        18.1354480698        3.1809827073        2.3222486396
  C        17.4061419457        4.2782655580        3.0208486764
  C        16.3903622339        3.9999304648        3.9482953717
  C        15.7426555196        5.0399177766        4.6117979012
  C        16.0946592050        6.3836192611        4.3721925639
  C        17.0840754302        6.6531356646        3.4084668154
  C        17.7331419807        5.6157799877        2.7434041080
  C        15.4703633125        7.4913257149        5.1352512533
  C        15.4856085199        7.4906307013        6.5569630244
  C        16.1871143904        6.4969868869        7.3101395117
  C        42.9459217817       31.8595460595        2.0779849140
  C        43.6462751730       30.7718578719        2.8220040783
  C        44.5919318994       31.0931904589        3.8079498500
  C        45.1976342558       30.0876468223        4.5556278657
  C        44.8710972525       28.7346068039        4.3408749156
  C        43.9451342308       28.4202498202        3.3278045474
  C        43.3362941604       29.4253781460        2.5797501413
  C        45.4887105561       27.6553074657        5.1440352472
  C        45.4928335369       27.6808835982        6.5657187460
  C        44.8057451842       28.6889187411        7.3123421683
  C        14.8566498561        8.5631262901        7.2693288918
  C        14.8751223947        8.5631142831        4.4566662301
  C        42.9464726383       31.9616001125       13.8038652218
  C        43.6916645531       30.8854412598       13.0903132592
  C        44.6564816366       31.1913411534       12.1182320738
  C        45.2780248990       30.1717483654       11.4005249811
  C        44.9540349037       28.8214646063       11.6379786627
  C        44.0202685145       28.5237835481       12.6484771088
  C        43.3919693583       29.5405530618       13.3606311041
  C        45.5631002132       27.7240575283       10.8527517166
  C        45.5333746374       27.7173420562        9.4314597557
  C        44.8270052128       28.7075462496        8.6785216372
  C        35.1437368901       26.6237127887        8.7296763408
  C        35.1238692908       26.6032010891       11.5392668278
  C        18.1485956857        3.2469819850       13.7015141939
  C        17.4299874215        4.3438397402       12.9922544823
  C        16.4147236037        4.0525701515       12.0687546773
  C        15.7664255866        5.0831984194       11.3933497450
  C        16.1211555050        6.4284178758       11.6160306649
  C        17.1125653076        6.7118084894       12.5732504867
  C        17.7602245616        5.6828928306       13.2530259118
  C        15.4906779865        7.5241155939       10.8435719551
  C        15.4965848284        7.5075185552        9.4224377285
  C        16.1933145946        6.5057929944        8.6757430408
  H        10.6723969548       12.4656114776       11.8996300478
  H        11.6946420800       10.5508167893       10.6577650416
  H        15.3917885856       11.1687181650       12.7670330778
  H        14.3513564095       13.0715321230       14.0122021464
  H        13.3761725499       11.6311668554        9.1962460442
  H        50.3228915354       22.7483032400       11.9815254941
  H        49.3197461501       24.6227766750       10.6755495900
  H        45.6425430112       24.1616258109       12.8590368981
  H        46.6634745939       22.2906718203       14.1672830022
  H        47.6300222265       23.5759220011        9.2410983809
  H        14.8721834497        8.5882836589       12.6034746336
  H        50.2871197230       22.7024453435        4.0657889626
  H        49.2691587291       24.5753130508        5.3657988350
  H        45.6109382218       24.1098395512        3.1506367104
  H        46.6530523639       22.2544909452        1.8363484838
  H        47.6079657809       23.5518860797        6.8019770651
  H        40.6603643559       17.1404799707        3.4304925764
  H        48.6871092640       14.0949020902       15.7949303823
  H        10.6813554274       12.4664672105        4.0982683901
  H        11.6896735327       10.5245977670        5.3019740254
  H        15.3937004336       11.1591299032        3.2108118665
  H        14.3651648575       13.0875236477        1.9955509568
  H        13.3758741754       11.6221677683        6.7582413981
  H        47.9303431634       14.2178473252        1.7161495159
  H        47.7800443213       14.3732578539       14.4901105255
  H        49.0845617390       18.5528737017        2.8727090258
  H        10.4162424321       14.1342548538        0.0038365120
  H        24.4873451869        3.0251747857       11.9155628156
  H        25.6330862761        4.8813591745       10.6900507199
  H        23.2593596474        7.7534688918       12.8384418908
  H        22.1317904363        5.8874245704       14.0654860030
  H        23.8225521478        5.7864709601        9.2611753999
  H        36.3832777826       32.1839305729       11.9538439291
  H        35.2633658211       30.3567610003       10.6736596040
  H        37.5154988794       27.4372627253       12.8886967688
  H        38.6166010724       29.2771788085       14.1764986565
  H        37.0412440948       29.4391269981        9.2669555287
  H        25.7521573811        8.6067531928       12.6447563000
  H        36.4613667086       32.2380683211        4.1225294987
  H        35.3536329389       30.4171122767        5.4175154135
  H        37.5289203789       27.4858163466        3.1406484825
  H        38.6120822184       29.3184357450        1.8339563044
  H        37.0605667820       29.4584051906        6.8286808027
  H        46.1094943068       26.5877456563        3.3907071583
  H        44.6682759081       35.1161392584       15.8088560618
  H        24.4380640592        3.0361922017        4.0884133879
  H        25.5731272942        4.8733457523        5.3396192630
  H        23.1716971652        7.7662919379        3.2513258532
  H        22.0484539678        5.9170396397        1.9998364202
  H        23.7989380839        5.7874383918        6.8227100262
  H        44.9539272495       34.3904322881        1.7002549007
  H        44.9018839049       34.2068416542       14.4854933433
  H        40.6657828535       33.2090258059        2.8582065290
  H        23.1506365727        1.9576006327        0.0103529280
  H        25.8186561045       19.6525586528       11.9164294315
  H        23.6448627870       19.6998372428       10.6785251332
  H        22.3516758453       16.2158461408       12.8419993981
  H        24.5272195584       16.1849871709       14.0726819523
  H        23.7216675299       17.6600312995        9.2421046677
  H        35.1606696425       15.4498173667       11.9823606871
  H        37.2804546588       15.4194959177       10.6686948480
  H        38.6905017307       18.8259626242       12.8852352947
  H        36.5617999212       18.8385226151       14.2024452969
  H        37.2314683293       17.4067216357        9.2440214874
  H        20.3593724878       17.9816782723       12.6635388949
  H        35.2280395404       15.4333010550        4.0421925955
  H        37.3598984266       15.3911564318        5.3503115168
  H        38.7216643461       18.8705018382        3.2203980814
  H        36.5833423165       18.8970554135        1.9153383252
  H        37.2512296349       17.4106127885        6.7962944756
  H        35.1530232838       26.6791832050        3.3983129544
  H        28.5060551940       21.0669033468       15.9532589105
  H        25.7524460368       19.6301855779        4.1683746769
  H        23.5678016858       19.6842117460        5.3809298065
  H        22.2991583334       16.1789588878        3.2360207004
  H        24.4855123196       16.1470880709        2.0185741337
  H        23.7008215524       17.6460895035        6.7991411517
  H        29.0140138283       21.7138624254        1.7569324913
  H        29.1788841107       21.7269174303       14.6212602854
  H        32.1246874748       18.5813655454        2.9724501617
  H        27.3742369442       19.0186985792        0.0843755047
  H        14.8486008567       19.6449517340        4.1486396944
  H        17.0109272047       19.6885636154        5.3923380346
  H        18.3023722721       16.1857639336        3.2567748846
  H        16.1357610314       16.1574038733        2.0132060467
  H        16.9210681431       17.6869656828        6.8538374093
  H        46.0940803738       15.4559048113        4.0850845218
  H        43.9717741254       15.4154177896        5.3992966419
  H        42.5666659114       18.8439336515        3.2136272433
  H        44.6890896990       18.8591336608        1.8897976782
  H        44.0331505367       17.3654774809        6.8507418393
  H        20.2894978138       17.9222094464        3.4266906961
  H        46.0382613087       15.3912373358       12.0282836088
  H        43.9055597264       15.3391933361       10.7331432768
  H        42.5226462437       18.7974876243       12.8844367193
  H        44.6622696886       18.8365692830       14.1791267311
  H        44.0144758038       17.3382675260        9.2908604597
  H        46.1994074192       26.6827353169       12.6182686257
  H        52.7412849140       21.0627126141        0.1998233897
  H        14.8787265106       19.6725647154       11.8892925844
  H        17.0792724551       19.7455124892       10.7091341252
  H        18.3380483187       16.2333216339       12.8481277308
  H        16.1391878082       16.1837243794       14.0371997723
  H        16.9425470666       17.7040002358        9.2913489050
  H        52.3228543185       21.6734363034       14.2890502506
  H        52.0135634210       21.7023043807        1.5008390641
  H        49.0679585405       18.6079681131       13.1989405283
  H        13.2478513045       19.0162398869       15.9722818403
  H        29.9501642916       12.4627965239        4.2437558773
  H        28.8893798125       10.5249197814        5.4112439031
  H        25.2550625193       11.1913456971        3.2099953065
  H        26.3375037298       13.1149421528        2.0311756554
  H        27.1775258504       11.6651951582        6.7927829239
  H        31.0038517403       22.7738743225        4.0191712027
  H        32.0195196956       24.6443269383        5.3247941056
  H        35.6995299422       24.1406626057        3.1562004407
  H        34.6639975933       22.2724840412        1.8502229736
  H        33.6871331752       23.5719635032        6.7592345844
  H        25.7132989556        8.5894938418        3.4089630142
  H        30.9452954089       22.7084766052       11.9261056243
  H        31.9737613476       24.5656885237       10.6171284371
  H        35.6124183747       24.1247229805       12.8690284065
  H        34.5641188986       22.2711880925       14.1817808857
  H        33.6639632662       23.5561846545        9.1991812298
  H        40.5947460780       17.0922950735       12.6578807634
  H        32.5100480721       14.1525598505        0.2550479569
  H        29.9122105918       12.5145287249       11.9357322064
  H        28.8852220765       10.6151703162       10.6724983713
  H        25.2101156554       11.1813272098       12.8334170255
  H        26.2560035992       13.0709852036       14.0962742774
  H        27.1742018884       11.6784585628        9.2368948579
  H        33.3056756941       14.2122899907       14.4545020000
  H        33.4093783282       14.3962796928        1.6082428718
  H        32.1074449168       18.5254289847       13.1733215281
  H        30.2196480021       14.1924406266        0.0838066010
  H        16.1182206348        2.9634411695        4.1346220132
  H        14.9531310900        4.8205425056        5.3273691191
  H        17.3665486665        7.6860054390        3.2153792778
  H        18.5151844892        5.8184080364        2.0155502041
  H        16.7536107011        5.7396091151        6.7766365065
  H        44.8283024675       32.1402728990        3.9820243361
  H        45.9375989380       30.3414112122        5.3114635395
  H        43.6823216617       27.3781937575        3.1577898520
  H        42.5995306185       29.1900715578        1.8151988783
  H        44.2304234695       29.4366966741        6.7740293415
  H        14.8513782366        8.5463618306        3.3684460988
  H        44.9002078729       32.2340147964       11.9269593618
  H        46.0251148234       30.4129650499       10.6474714069
  H        43.7631059508       27.4840687940       12.8398657955
  H        42.6452395281       29.3177980525       14.1188782251
  H        44.2685445200       29.4704472064        9.2131299386
  H        35.0781333371       26.6174368763       12.6265903743
  H        36.6050857865       35.1340143801        0.1858001568
  H        16.1435886865        3.0130017283       11.8990865494
  H        14.9740475307        4.8563601080       10.6833262258
  H        17.3960989698        7.7472742784       12.7501108041
  H        18.5431339215        5.8933290182       13.9777562133
  H        16.7646682157        5.7555027574        9.2141904766
  H        36.2784369131       34.4826040959       14.2680352431
  H        36.3806549747       34.2093229048        1.5049526842
  H        40.5801743940       33.2025450425       13.1483925166
  H        17.4708714221        1.9476053013       15.9690218167
  H        28.8643788182       19.1522382209        4.4224734535
  H        30.0146885352       19.6999129763       11.5680589786
  H        32.2461036370       16.0657106217       11.6699232626
  H        30.9507090477       15.5285284174        4.4494677358
  H        28.3698115933       17.4765541477        6.8804839774
  H        29.3291488706       15.2518944089        6.4275686146
  H        31.8417678194       19.8439250876        9.5801449024
  H        33.0140019966       17.3323383718        9.4024887422
  H        28.8821875606       16.8017939249        9.2652060533
  H        18.8534833003        0.8689629400        4.3404388587
  H        40.5280579099       35.2291124206       11.9469401885
  H        42.3240688452       34.4189711033       11.5852964306
  H        22.0878126902        0.6919633684        4.3567919128
  H        11.5967863262       18.7130926352        4.3878255684
  H        52.2649337259       18.4311810470       11.6719932124
  H        49.2552264899       16.4768466385       11.5793416663
  H        10.1501461199       15.7982223159        4.2978996263
  H        50.8501614047       17.6924103425       11.9491271561
  H        10.0462065081       17.3945222004        4.0570293760
  H        20.2148014154        0.0022412945        4.0471035172
  H        39.1837349211       36.1244963976       11.6813030988
 Ni        30.8602559418       17.6740544263       10.7433835644
 Ni        31.2413552076       16.1363713884        7.9961328304
 Ni        30.0153425056       18.9360324615        8.0769552627
 Ni        30.2273794421       17.4990769880        5.3308879811
  O        10.6499828105       14.3651193591       13.4807520824
  O        12.6131688677       14.6575105416       14.5787955342
  O        49.1481552857       16.8458810139       15.9846509350
  O        50.3503502750       20.9357315189       13.6429161760
  O        48.3486005887       20.5933723407       14.6607778624
  O        11.0518435544       17.0538285216       14.4956223477
  O        50.3211056316       20.8816051013        2.4119411975
  O        48.3467822897       20.5868431083        1.3322833062
  O        49.5438500969       18.2483923086        2.0733651558
  O        12.3592839016       18.6246898285        0.0047523661
  O        48.6932998771       14.1485485193       14.7462164529
  O         8.2099392236       14.2103764309        1.3276354514
  O        10.7353947989       14.5067425215        2.6694139636
  O        12.5718193713       14.5827982489        1.3335907880
  O        22.8446141720        2.0428064330       13.4821035231
  O        21.6060772383        3.5925857093       14.5839928018
  O        42.0581954386       34.1373708365       15.9738633736
  O        37.9818931388       33.1376260937       13.5673371047
  O        39.2183509482       31.5762429298       14.6617698806
  O        20.3083828161        1.0395917153       14.4969865631
  O        38.0247264900       33.1857035459        2.4203322670
  O        39.2194118356       31.5839756301        1.3312853395
  O        40.6522797190       33.7693922878        2.0653556761
  O        18.2556475707        1.3765657403        0.0018850802
  O        44.6222376559       35.1005421119       14.7536567043
  O        24.2054049311        0.0000141089        1.3258982773
  O        22.7529868313        2.0573199886        2.5887441325
  O        21.6246024541        3.5961322928        1.3479532404
  O        27.4921300656       18.7500083978       13.4913311508
  O        26.7633005929       16.9285653594       14.6473128231
  O        30.6375736068       19.3528703954        0.0673232510
  O        33.5901565994       16.2752489540       13.6601413564
  O        34.2758469676       18.1676932431       14.7300460120
  O        29.5761841225       17.0581501346       14.5617890289
  O        33.6189006466       16.3310759675        2.4200618883
  O        34.3050109877       18.2481598796        1.4105854738
  O        31.6527850455       18.3137020535        2.1678792594
  O        30.3227716995       15.1580119298        0.0925245057
  O        28.5553846977       21.0277075699       14.8892368450
  O        28.5129211086       20.9533106660        1.4167485268
  O        27.4605253947       18.6750999104        2.6698986138
  O        26.6930896307       16.9272975599        1.4217836018
  O        13.1488664196       18.6928906473        2.5925894728
  O        13.9193432879       16.9161904679        1.4100812040
  O        50.5965444789       19.3503278622        0.0255716230
  O        47.6836437738       16.3269872839        2.4223870169
  O        46.9523095976       18.1760508814        1.3292582075
  O        11.0699126798       17.0155020094        1.4947470743
  O        47.6761791914       16.3355259906       13.6479846928
  O        46.9283281476       18.2358805208       14.6601833501
  O        49.5689180920       18.3176785519       13.9771635674
  O        10.3187208548       15.1000925808        0.0021982931
  O        52.6708131655       21.0278908848        1.2469342351
  O        12.1468571510       20.8911926423       14.6681355201
  O        13.1082571521       18.6135959076       13.3204995407
  O        13.9572350567       16.9870567548       14.6603080566
  O        29.9922114200       14.4434814392        2.7386181367
  O        28.0889990211       14.6532810269        1.5007825344
  O        32.1398300335       16.8511720222        0.0865198202
  O        30.9665223481       20.9526465659        2.4131764137
  O        32.9463487675       20.5999286710        1.3411399056
  O        29.5700888758       17.0727069646        1.5874167488
  O        30.8724668215       20.9457731190       13.6565226654
  O        32.8765831293       20.5859464196       14.6622138729
  O        31.6861926203       18.2520420527       14.0029681315
  O        28.2637633959       18.6304656240        0.0814274968
  O        32.4919169657       14.2133940099        1.3345430196
  O        32.4056575545       14.2139249901       14.8208134127
  O        29.9158804193       14.4367963508       13.4848158501
  O        28.0371453427       14.5880489844       14.7482471108
  O        17.8892342981        1.9666835894        2.6679297173
  O        18.9562950822        3.5271716124        1.4130745598
  O        39.1686010307       34.1388596446        0.0022976799
  O        43.2802279376       33.0589817368        2.3368098213
  O        42.0345877468       31.5063886440        1.2467455816
  O        20.3176861107        1.0367935265        1.4852083193
  O        43.2760731464       33.1825941295       13.5697807499
  O        42.0053158564       31.5840531923       14.5778498037
  O        40.5790180086       33.7749872078       13.9306894135
  O        22.3673216319        1.3846610474        0.0030382941
  O        36.6728021217       35.0998046070        1.2384058155
  O        16.4456163477        0.0642886478       14.6631687230
  O        17.9364871209        2.0434255941       13.3212686962
  O        18.9191358864        3.5931289282       14.6608008712
  O        29.8648823329       18.8855971877       12.0871382615
  O        29.7754710029       19.0457425934        4.0827262733
  O        31.3827937639       16.2604475174       12.0842243317
  O        31.3523611046       16.3407253406        4.0705375058
  O        32.3193704534       16.7003991470        9.6435080132
  O        29.7721468086       17.1485166938        9.0923774064
  O        30.1912449656       15.6845692416        6.3321875550
  O        31.4219416578       17.9488896041        6.9790364255
  O        30.9552268997       19.4838347018        9.7354690420
  O        28.7586456055       18.3113143831        6.5684355972
  O        39.4568826770       35.2438757633       11.9968382956
  O        19.1414457774        0.0045550787        3.9956322905
  O        41.9695888052       35.1727114557       12.0820600028
  O        21.6913203342       -0.0693612366        3.9010728738
  O        51.3651591629       18.6142702746       12.0002855291
  O        10.7511179371       18.7471604271        3.9100311228
  O        50.0796416754       16.4127562793       12.0866196596
  O         9.5243822523       16.4831274185        3.9962908519
 Zr         9.2974623010       16.0526629834       14.1774125748
 Zr        49.8368696494       16.0065402967        1.7514064857
 Zr        22.0732095085        0.0298390779       14.1839556383
 Zr        42.4609129094       35.1533856064        1.8060246130
 Zr        29.5955804937       19.0810058521       14.2308067267
 Zr        29.5762397689       19.1715308178        1.8706684550
 Zr        11.0385330968       19.0519297162        1.8328680780
 Zr        11.0443845371       19.1548134703       14.2457766931
 Zr        31.3580782725       16.1025582871        1.8899889728
 Zr        31.3896729095       16.0082390758       14.2605718616
 Zr        18.6011147863       -0.0013318563        1.7684562223
 Zr        18.5064377455       -0.0077146170       14.2086156003
 Zr        12.3025435053       16.3235419711       15.9852232799
 Zr        48.6175082188       18.8334357788        0.0153217568
 Zr        20.3153002511        2.4734822689       15.9852999296
 Zr        40.6433973547       32.6870697604       15.9731162272
 Zr        28.3512157807       16.3424998284        0.0836540123
 Zr        32.6118661584       18.8295480382        0.0531477202
  H        32.2764091570       18.3932421545        6.8610537574
  O        30.9296222734       14.3007667665        9.1671565103
  H        31.0841144381       14.6661149278       10.0650790452
  H        30.0211981587       13.9566687835        9.1915911045
  O        32.9050264990       15.3873724006        6.7431873615
  H        33.7603823469       15.8232363948        6.8875786385
  H        32.6032315245       15.6799720747        5.8522692367
  O        27.8835622029       20.1542697303        8.1673623177
  H        27.8393779929       19.4574498306        7.4493279919
  H        27.2651931717       19.8936132799        8.8682871472
  O        30.4132296812       20.7302232007        6.9034361997
  H        30.2994969304       20.4300432445        5.9730931405
  H        29.6086901542       21.2436074484        7.1073247645
