     578
 i =       96, E =     -4812.1551034857
  C        11.8590216502       14.0535091288       13.7363848011
  C        12.4565379731       12.8907864656       13.0180173305
  C        11.7046035864       12.1712672269       12.0769705749
  C        12.2810394259       11.1090719576       11.3846974864
  C        13.6218903036       10.7398877821       11.6118653923
  C        14.3553909914       11.4441958372       12.5845331999
  C        13.7824636808       12.5091870985       13.2759797771
  C        14.2613136719        9.6491273562       10.8385142797
  C        14.2562737402        9.6568765153        9.4168274296
  C        13.7430640569       10.7590076873        8.6629673710
  C        49.1271837203       21.2331285851       13.8745345932
  C        48.5505035338       22.4013065486       13.1475843932
  C        49.3003598527       23.0682486160       12.1662217760
  C        48.7334623100       24.1074514757       11.4330461964
  C        47.4031312590       24.5095240416       11.6620830358
  C        46.6724548027       23.8611552008       12.6761272616
  C        47.2348635785       22.8162008569       13.4054312620
  C        46.7727308734       25.5871203658       10.8648035051
  C        46.7613493859       25.5573047028        9.4430444931
  C        47.2612633993       24.4422005498        8.6995464818
  C        14.8601774128        8.5705323761        8.7035588156
  C        14.8923084785        8.5973331788       11.5151831726
  C        49.1134074876       21.2033545821        2.1504291785
  C        48.5280298416       22.3648403794        2.8776260976
  C        49.2670815461       23.0250604351        3.8709789801
  C        48.6908356849       24.0596572061        4.6024851761
  C        47.3606768852       24.4569854440        4.3638077153
  C        46.6405184732       23.8126784617        3.3397123240
  C        47.2140054662       22.7767575716        2.6078961307
  C        46.7221473434       25.5318931694        5.1548630900
  C        46.7335325338       25.5280791679        6.5765783607
  C        47.2489480842       24.4288729094        7.3329919410
  C        40.6322897217       17.1388722009        7.3288370652
  C        40.6602530109       17.1803973700        4.5200716923
  C        11.8832862503       14.0865690222        2.2907502435
  C        12.4727153521       12.9111054056        2.9951539372
  C        11.7149905490       12.1772918432        3.9206379513
  C        12.2816959192       11.0948834734        4.5889835970
  C        13.6208026817       10.7218035996        4.3576986519
  C        14.3591117893       11.4381503719        3.3977496010
  C        13.7935704626       12.5192808698        2.7250942523
  C        14.2542855600        9.6249225560        5.1280172697
  C        14.2525822142        9.6446455203        6.5498445517
  C        13.7425779992       10.7535249319        7.2969262833
  C        22.5127599136        3.2465018079       13.7463198657
  C        23.2264602014        4.3519984241       13.0452538267
  C        24.2211146317        4.0725757097       12.0960268716
  C        24.8475206984        5.1120609857       11.4128387612
  C        24.4958839759        6.4547985794       11.6571320711
  C        23.5294310927        6.7255133817       12.6433981346
  C        22.8984412545        5.6879489936       13.3253525811
  C        25.1010288086        7.5618198770       10.8799361923
  C        25.0738890101        7.5543233193        9.4579047007
  C        24.3749067004        6.5530457568        8.7115888750
  C        38.3036906396       31.9314848551       13.8454941964
  C        37.5752463532       30.8410545359       13.1370823610
  C        36.6128553710       31.1432709140       12.1620761832
  C        35.9980969101       30.1213451201       11.4445154938
  C        36.3324452895       28.7739339305       11.6815355619
  C        37.2651122807       28.4788610678       12.6931542481
  C        37.8835928444       29.4995473742       13.4096177262
  C        35.7325850265       27.6818772630       10.8847668327
  C        35.7596410571       27.7005270159        9.4637538434
  C        36.4641528887       28.7040495240        8.7265947082
  C        25.6945317441        8.6255379498        8.7371011898
  C        25.6984245345        8.6377617409       11.5491016631
  C        38.3289072969       31.9638087880        2.1612047282
  C        37.6043026729       30.8934318156        2.9050288255
  C        36.6789890351       31.2087029614        3.9117093203
  C        36.0641614590       30.1947689018        4.6435268182
  C        36.3601662347       28.8406558998        4.3907233971
  C        37.2635640332       28.5352059362        3.3544864972
  C        37.8811582609       29.5458916302        2.6245688115
  C        35.7467642238       27.7451715971        5.1756867437
  C        35.7667789224       27.7332294434        6.5975007439
  C        36.4682573786       28.7192609035        7.3600592428
  C        46.1353982180       26.6206499407        7.2867298712
  C        46.0884491808       26.5804323451        4.4788345392
  C        22.4626519563        3.2561496649        2.2619507073
  C        23.1599699608        4.3638828188        2.9817650731
  C        24.1637463280        4.0768916073        3.9206846265
  C        24.7947918806        5.1065541091        4.6144286372
  C        24.4423014657        6.4528495557        4.3922260944
  C        23.4620004493        6.7329250561        3.4213840161
  C        22.8263537874        5.7036949718        2.7278563767
  C        25.0732635749        7.5511062776        5.1659538105
  C        25.0607778786        7.5477771923        6.5886291525
  C        24.3668481159        6.5510679397        7.3448201057
  C        26.6232207191       17.8616004350       13.7827217775
  C        25.3155390611       17.9017141785       13.0576728764
  C        25.0638705587       18.8832899078       12.0860711909
  C        23.8511608822       18.9004591425       11.3993722559
  C        22.8534728946       17.9389583661       11.6609050617
  C        23.1024645956       16.9798469249       12.6609317208
  C        24.3169069898       16.9572749311       13.3456651942
  C        21.5800574858       17.9210324355       10.8964392476
  C        21.5792302282       17.8894443613        9.4738288001
  C        22.7834039990       17.7521518005        8.7136813746
  C        34.4205864362       17.2233072752       13.9073357515
  C        35.7105294387       17.1592777715       13.1577990179
  C        35.9132803917       16.1854198031       12.1668770375
  C        37.0953426470       16.1656418490       11.4302101551
  C        38.1081233039       17.1160889342       11.6679234341
  C        37.9073481786       18.0689881349       12.6843260800
  C        36.7226421110       18.0954453260       13.4161719352
  C        39.3666054817       17.1192162671       10.8876963404
  C        39.3673383739       17.1422697353        9.4665904654
  C        38.1633644777       17.2700602596        8.7045706323
  C        20.3325919355       17.9105698325        8.7651248476
  C        20.3547773284       17.9312572279       11.5782749398
  C        34.4791968544       17.2486597572        2.1816461141
  C        35.7848957925       17.1784275181        2.9019719912
  C        36.0011923726       16.1924458702        3.8759822404
  C        37.1865339430       16.1761322186        4.6052979471
  C        38.1828867154       17.1456373639        4.3803140845
  C        37.9733836148       18.1066015423        3.3739908961
  C        36.7857525235       18.1275411572        2.6470874291
  C        39.4270736262       17.1646919318        5.1798183619
  C        39.3983936770       17.1674022327        6.6006129149
  C        38.1776570667       17.2800587453        7.3381372331
  C        35.1370926897       26.6536492997        7.3015385088
  C        35.1430887811       26.6822561099        4.4928254999
  C        26.5857022052       17.7918540934        2.3659440265
  C        25.2689211861       17.8444358835        3.0627190163
  C        25.0103103615       18.8383972632        4.0182443752
  C        23.7862487489       18.8692989896        4.6797751206
  C        22.7948167240       17.9038758984        4.4134935526
  C        23.0485206712       16.9358049994        3.4247721822
  C        24.2713621997       16.9049354687        2.7580940508
  C        21.5299076134       17.8843241370        5.1837794604
  C        21.5535786246       17.8678408884        6.6055575479
  C        22.7710469899       17.7405701956        7.3474258792
  C        14.0476937670       17.8283296727        2.2947115352
  C        15.3516344755       17.8833204073        3.0203048130
  C        15.6086331498       18.8825103223        3.9722850422
  C        16.8175069628       18.9000864235        4.6655913604
  C        17.8044743333       17.9214407291        4.4296878589
  C        17.5522890733       16.9470598059        3.4452065979
  C        16.3429576616       16.9246623968        2.7535100663
  C        19.0735107839       17.8999306728        5.1990428899
  C        19.0721947994       17.8938070824        6.6216954935
  C        17.8651791190       17.7978905477        7.3832503685
  C        46.8079244888       17.2211536693        2.1654933525
  C        45.5212591491       17.1669857840        2.9169368120
  C        45.3152538471       16.1932055100        3.9059914642
  C        44.1362685939       16.1830124232        4.6464114691
  C        43.1349985070       17.1467352109        4.4180827807
  C        43.3390436084       18.1014866238        3.4038670352
  C        44.5186573374       18.1155633732        2.6648403377
  C        41.8811824094       17.1614348395        5.2040769596
  C        41.8817750565       17.1552077943        6.6256396120
  C        43.0878621275       17.2456008245        7.3893288587
  C        20.3190166239       17.8990273212        7.3302021258
  C        20.2978718604       17.8797436351        4.5168909855
  C        46.7834103239       17.2298395512       13.8860839095
  C        45.4763135151       17.1203576433       13.1755231355
  C        45.2565687050       16.1227227598       12.2137159319
  C        44.0665517075       16.0948419557       11.4902295465
  C        43.0661055188       17.0610348703       11.7121763780
  C        43.2751069301       18.0266693205       12.7144455196
  C        44.4666483006       18.0613300684       13.4323192263
  C        41.8210640251       17.0871164726       10.9121095826
  C        41.8511658598       17.1150728947        9.4912478887
  C        43.0734126933       17.2242846430        8.7556158375
  C        46.1531783321       26.6370999694        8.7212917081
  C        46.1629866622       26.6563769131       11.5309142320
  C        14.0465559164       17.8319412414       13.7036435364
  C        15.3677745050       17.9059072829       13.0145426766
  C        15.6415381507       18.9181097834       12.0823831596
  C        16.8710444682       18.9536333258       11.4283700170
  C        17.8549792885       17.9761873233       11.6802984718
  C        17.5882953190       16.9938604533       12.6514304280
  C        16.3608926062       16.9575895644       13.3089291827
  C        19.1221727144       17.9471286069       10.9112797300
  C        19.0975454205       17.9171102821        9.4898624165
  C        17.8775891793       17.8083044174        8.7492973588
  C        28.8075935256       14.0829792502        2.3631363554
  C        28.2017306202       12.9109267817        3.0565498611
  C        28.9157009633       12.1985610340        4.0309590960
  C        28.3189699950       11.1258093131        4.6884811697
  C        26.9934928982       10.7432929229        4.3980548602
  C        26.3015712903       11.4381891248        3.3895935703
  C        26.8961132882       12.5103588678        2.7297775748
  C        26.3231535333        9.6659784439        5.1619112819
  C        26.3009579838        9.6974427627        6.5830228333
  C        26.7925160100       10.8164343896        7.3269920233
  C        32.1545319019       21.2667714537        2.1539401156
  C        32.7379697195       22.4366912535        2.8765096541
  C        31.9915158434       23.1042963004        3.8600239097
  C        32.5628071286       24.1434486764        4.5896885334
  C        33.8936859376       24.5410822080        4.3544733293
  C        34.6199215753       23.8923363963        3.3386805999
  C        34.0520386164       22.8486408197        2.6118514345
  C        34.5287644541       25.6127533738        5.1531400779
  C        34.5354573426       25.5758044961        6.5738167054
  C        34.0326748896       24.4573096830        7.3108352158
  C        25.6926969035        8.6186570551        7.3023858945
  C        25.6914503867        8.6112177787        4.4894989401
  C        32.1070719722       21.2331860818       13.8854392888
  C        32.7032228091       22.3805698871       13.1382316495
  C        31.9680650945       23.0458447145       12.1449357449
  C        32.5508967295       24.0726709917       11.4061660885
  C        33.8825570664       24.4652277943       11.6443512323
  C        34.6011972218       23.8134392881       12.6646223663
  C        34.0230838788       22.7800432012       13.3975538087
  C        34.5216620413       25.5471928414       10.8613723543
  C        34.5306158104       25.5427421050        9.4398757311
  C        34.0294675662       24.4414359222        8.6770845328
  C        40.6165719256       17.1218226356        8.7628823489
  C        40.5874036808       17.1073918596       11.5724557704
  C        28.7232551758       14.0996091504       13.7757807670
  C        28.1208426970       12.9491601604       13.0422385326
  C        28.8459439441       12.2715739724       12.0498926106
  C        28.2683676742       11.2068982896       11.3626701667
  C        26.9489807999       10.7948815206       11.6393189565
  C        26.2418657025       11.4610937989       12.6583043319
  C        26.8180897410       12.5243005485       13.3495491254
  C        26.3071917172        9.7021826523       10.8705430501
  C        26.2938897509        9.7164102128        9.4483742456
  C        26.7863586996       10.8265265367        8.6925614556
  C        18.1355526875        3.1813182089        2.3223221142
  C        17.4064511113        4.2785004470        3.0209733018
  C        16.3901401193        4.0002496206        3.9478992159
  C        15.7425214782        5.0402984555        4.6113546749
  C        16.0950923893        6.3839570666        4.3722170677
  C        17.0851862226        6.6533929550        3.4091663520
  C        17.7341879683        5.6159837425        2.7441281533
  C        15.4706669674        7.4916023146        5.1352662770
  C        15.4855366664        7.4906417704        6.5569785872
  C        16.1869919623        6.4969444345        7.3101286588
  C        42.9460189212       31.8597467070        2.0780464035
  C        43.6465411027       30.7720076876        2.8219971057
  C        44.5915969261       31.0934039501        3.8084755692
  C        45.1973699256       30.0878835369        4.5561617433
  C        44.8714762932       28.7347635545        4.3408974696
  C        43.9462568821       28.4203716541        3.3271416887
  C        43.3373738753       29.4254794800        2.5791080701
  C        45.4889492138       27.6554074930        5.1440950772
  C        45.4927605139       27.6808181671        6.5657977665
  C        44.8055754366       28.6887960867        7.3124308853
  C        14.8564516279        8.5630488234        7.2693524028
  C        14.8757315221        8.5635637753        4.4566823184
  C        42.9465428298       31.9619145965       13.8039445294
  C        43.6919716369       30.8856866167       13.0905268794
  C        44.6560349144       31.1916158073       12.1177397523
  C        45.2776344646       30.1720313584       11.4000351670
  C        44.9544229479       28.8216760679       11.6381527235
  C        44.0216279249       28.5240106538       12.6495752852
  C        43.3933235463       29.5407704037       13.3617366494
  C        45.5633378225       27.7242043192       10.8528953655
  C        45.5332565131       27.7172871966        9.4315962719
  C        44.8268332217       28.7074324325        8.6786179596
  C        35.1342156500       26.6365331681        8.7358091487
  C        35.1328739468       26.6042746918       11.5455196499
  C        18.1487407021        3.2472788890       13.7013836791
  C        17.4303290760        4.3440210391       12.9920654596
  C        16.4146216740        4.0528040252       12.0689977013
  C        15.7663471764        5.0834725349       11.3936768098
  C        16.1215412433        6.4286530671       11.6159536767
  C        17.1135536946        6.7119898562       12.5725597114
  C        17.7612166195        5.6830454356       13.2522825351
  C        15.4908983040        7.5242962496       10.8435570702
  C        15.4964500272        7.5074639145        9.4224306216
  C        16.1931810190        6.5057392120        8.6757327623
  H        10.6722691210       12.4649126981       11.9003987763
  H        11.6946769026       10.5501144143       10.6585881534
  H        15.3927494965       11.1703698696       12.7655641625
  H        14.3523304414       13.0730572916       14.0106090451
  H        13.3762480067       11.6312019544        9.1962978753
  H        50.3229284825       22.7479121064       11.9811769729
  H        49.3198989143       24.6224450442       10.6752399424
  H        45.6432322553       24.1625236359       12.8598172099
  H        46.6641600414       22.2913599593       14.1680244634
  H        47.6301126459       23.5759605162        9.2412381555
  H        14.8731689302        8.5888694903       12.6035000451
  H        50.2869678154       22.7018398457        4.0661563064
  H        49.2692254790       24.5747811594        5.3662203089
  H        45.6114243550       24.1106349577        3.1500969524
  H        46.6535083301       22.2551501956        1.8357271630
  H        47.6080009266       23.5518630306        6.8020996603
  H        40.6706249349       17.1513401836        3.4322323225
  H        48.6873379196       14.0951625359       15.7949739483
  H        10.6812969211       12.4658334610        4.0975604459
  H        11.6898422288       10.5239483374        5.3011896373
  H        15.3948909089       11.1610723175        3.2125323337
  H        14.3663084764       13.0893275084        1.9974051625
  H        13.3760250601       11.6222617127        6.7583027294
  H        47.9303840533       14.2186805987        1.7161222818
  H        47.7802368182       14.3748367580       14.4905122358
  H        49.0857227869       18.5531781915        2.8729409595
  H        10.4167713145       14.1342811880        0.0038185200
  H        24.4816150627        3.0341229329       11.9038004961
  H        25.6188417392        4.8935127313       10.6774940840
  H        23.2494689093        7.7584335781       12.8397595359
  H        22.1305452269        5.8897185933       14.0682062689
  H        23.8139203679        5.7958279067        9.2514966001
  H        36.3721902173       32.1859960525       11.9689275006
  H        35.2510233433       30.3571913224       10.6898562858
  H        37.5296989106       27.4404709936       12.8816515845
  H        38.6299749400       29.2822203489       14.1699177761
  H        37.0327725156       29.4511070427        9.2727219359
  H        25.7362983790        8.6202691508       12.6368571159
  H        36.4628231142       32.2545247307        4.1178538211
  H        35.3413089388       30.4445382943        5.4170590715
  H        37.5037785203       27.4932560738        3.1535758840
  H        38.6014414569       29.3157605519        1.8432461755
  H        37.0412823141       29.4773704690        6.8339407853
  H        46.1103675117       26.5881289418        3.3908103580
  H        44.6684575193       35.1164262689       15.8088994478
  H        24.4400349405        3.0383672484        4.0883034625
  H        25.5763997186        4.8771676643        5.3355726233
  H        23.1786903509        7.7678645405        3.2407424495
  H        22.0536993949        5.9175248368        1.9929668919
  H        23.7990253127        5.7928401211        6.8134190843
  H        44.9543060158       34.3907287679        1.7004678759
  H        44.9020558757       34.2069839053       14.4855982798
  H        40.6668643355       33.2101251048        2.8586386690
  H        23.1503677967        1.9589260710        0.0096156433
  H        25.8327652419       19.6253795340       11.8830863834
  H        23.6622542735       19.6677108753       10.6515353451
  H        22.3449808184       16.2278124219       12.8723814065
  H        24.5186427800       16.2025809338       14.1022900482
  H        23.7234100667       17.6253744808        9.2428067564
  H        35.1328562733       15.4472358132       11.9933771572
  H        37.2541713987       15.4013440391       10.6723768520
  H        38.6815177266       18.8101035136       12.8723922001
  H        36.5518117874       18.8445933935       14.1859290493
  H        37.2231139535       17.3916082781        9.2344102220
  H        20.3615932156       17.9785463955       12.6658617019
  H        35.2195168231       15.4582397555        4.0570501008
  H        37.3551343571       15.4085198434        5.3574546429
  H        38.7374427608       18.8605724683        3.1960519110
  H        36.6004928757       18.8864728195        1.8905352533
  H        37.2485502147       17.4062569233        6.7897371044
  H        35.1063116351       26.7137124420        3.4055636492
  H        28.5087565889       21.0823539084       15.9866660992
  H        25.7806305478       19.5766575467        4.2288443627
  H        23.5852376043       19.6438923079        5.4165697998
  H        22.2915758958       16.1832525375        3.2136554882
  H        24.4837924804       16.1454766600        2.0094963410
  H        23.7018299036       17.6043804892        6.8047431851
  H        28.9643111229       21.7223669136        1.7962184579
  H        29.1570026873       21.7479138868       14.6271485137
  H        32.1150831032       18.5337482011        2.9961705680
  H        27.3922532510       19.0659681277        0.0975337948
  H        14.8506350920       19.6412328598        4.1537231327
  H        17.0125504802       19.6813218324        5.3971336083
  H        18.3035312321       16.1836759097        3.2532275700
  H        16.1376436583       16.1585699664        2.0096028722
  H        16.9222245401       17.6839105780        6.8564363774
  H        46.0957987558       15.4579271166        4.0868952946
  H        43.9752819907       15.4196158577        5.4044058597
  H        42.5735186919       18.8536532373        3.2250101114
  H        44.6941328541       18.8661325317        1.8977728538
  H        44.0313029253       17.3635117974        6.8638681525
  H        20.2922628684       17.9147624168        3.4288980612
  H        46.0347198180       15.3845698614       12.0331305713
  H        43.9004615458       15.3218006477       10.7430570508
  H        42.5079019077       18.7771876144       12.8930749025
  H        44.6497383688       18.8271023678       14.1821158136
  H        44.0057110940       17.3245633940        9.3037620279
  H        46.2003677091       26.6832344225       12.6183347199
  H        52.7415907496       21.0628185084        0.1998730261
  H        14.8809290280       19.6707766263       11.8868568213
  H        17.0821164187       19.7413353314       10.7083189755
  H        18.3393600039       16.2331758589       12.8543284072
  H        16.1401944953       16.1856908145       14.0421459247
  H        16.9439150294       17.7022378810        9.2934073852
  H        52.3237102136       21.6736834704       14.2886777837
  H        52.0140553110       21.7026784251        1.5008445571
  H        49.0682253826       18.6075828150       13.1985869012
  H        13.2483522589       19.0155099858       15.9724891743
  H        29.9324490802       12.5053626443        4.2651475246
  H        28.8743421461       10.5740882810        5.4437114907
  H        25.2768597996       11.1546745338        3.1584714616
  H        26.3579116294       13.0689607357        1.9680244626
  H        27.1500884752       11.6888295328        6.7880260401
  H        30.9658449120       22.7894087524        4.0421511685
  H        31.9797552334       24.6641928724        5.3463809468
  H        35.6493647672       24.1915967194        3.1524811432
  H        34.6169317229       22.3206084701        1.8470828573
  H        33.6727490847       23.5927793903        6.7608194844
  H        25.7267317681        8.5880113703        3.4017256224
  H        30.9401482439       22.7427471528       11.9599794539
  H        31.9732623124       24.5909066718       10.6437499963
  H        35.6318525898       24.1065448310       12.8537976806
  H        34.5818373733       22.2543463924       14.1684331841
  H        33.6663442246       23.5647595521        9.2057308725
  H        40.5762118101       17.0623156331       12.6598460353
  H        32.5159424711       14.1492273462        0.2640357265
  H        29.8631870768       12.5885401393       11.8314918594
  H        28.8397455876       10.6795419230       10.6020579692
  H        25.2204037337       11.1575779167       12.8782989290
  H        26.2682559568       13.0537145308       14.1240628982
  H        27.1386882216       11.7071220435        9.2213689416
  H        33.2890861257       14.1894408973       14.4216888409
  H        33.4108488315       14.4173961254        1.6049614127
  H        32.1470448520       18.5900180577       13.2130955461
  H        30.2239485985       14.1934242277        0.0656693958
  H        16.1175876224        2.9638067797        4.1338815669
  H        14.9526569891        4.8210761154        5.3266009975
  H        17.3683964483        7.6861783575        3.2166995507
  H        18.5168847975        5.8186607122        2.0169942679
  H        16.7537571358        5.7397639280        6.7766239694
  H        44.8275056325       32.1405365982        3.9829242516
  H        45.9369415219       30.3417643262        5.3123568985
  H        43.6842265704       27.3782180520        3.1565338154
  H        42.6012943012       29.1901754606        1.8139190048
  H        44.2304179587       29.4366967449        6.7740999774
  H        14.8525380795        8.5471654430        3.3684455144
  H        44.8991829228       32.2343300949       11.9259331057
  H        46.0242065875       30.4133562639       10.6464924662
  H        43.7654054371       27.4842163729       12.8417616150
  H        42.6474681010       29.3180479112       14.1208325993
  H        44.2684949045       29.4704454464        9.2131991292
  H        35.0938916796       26.6148542620       12.6331072738
  H        36.6053000298       35.1344013528        0.1856212586
  H        16.1431404874        3.0132783240       11.8996426579
  H        14.9736756714        4.8567683124       10.6839377641
  H        17.3977277442        7.7473759160       12.7488683401
  H        18.5447107839        5.8935355369       13.9763678279
  H        16.7647954582        5.7556239601        9.2141515626
  H        36.2787826209       34.4829072796       14.2677686142
  H        36.3814306096       34.2091430647        1.5043281141
  H        40.5815139436       33.2039227159       13.1480231228
  H        17.4710444712        1.9483996438       15.9690352988
  H        28.8275576334       18.8559023685        4.4113442413
  H        29.7166894549       20.0004683831       11.7313589511
  H        32.1496274573       16.3285120099       10.7278110204
  H        31.3531589318       15.4278706084        4.4967439725
  H        28.3700497903       17.3374324437        6.9083849974
  H        31.9556108946       13.6014444303        8.0920069858
  H        31.5147564651       20.1911941741        9.5131957874
  H        33.4483858752       16.7595036175        9.8618521214
  H        29.0106425152       16.7310344251        9.3583280797
  H        18.8540941981        0.8692678954        4.3404346307
  H        40.5280091521       35.2289638699       11.9467085183
  H        42.3260551070       34.4209305189       11.5842221046
  H        22.0874559843        0.6921932021        4.3569398918
  H        11.5968675519       18.7127387020        4.3877563594
  H        52.2653320608       18.4314228321       11.6722130445
  H        49.2549219247       16.4768323228       11.5792461223
  H        10.1503220069       15.7982811781        4.2978033186
  H        50.8506278983       17.6926961545       11.9489249261
  H        10.0463284170       17.3946187403        4.0569450059
  H        20.2154910763        0.0024034254        4.0469599214
  H        39.1839720090       36.1246150631       11.6813036822
  H        32.3746780413       18.3818475524        6.8693489444
 Ni        30.6527167473       18.0800424223       10.8251452174
 Ni        31.1990994626       16.2055252314        8.0760488225
 Ni        30.0099219093       18.9424632214        7.8283923703
 Ni        30.3114954436       17.2109814594        5.4131474486
  O        10.6500219369       14.3651910815       13.4807550090
  O        12.6131871182       14.6575007079       14.5788274791
  O        49.1479571804       16.8457542335       15.9844631721
  O        50.3503561037       20.9356571697       13.6427697192
  O        48.3485914862       20.5933089353       14.6607214888
  O        11.0519980492       17.0536875689       14.4957427275
  O        50.3210022362       20.8816019941        2.4119922564
  O        48.3467460665       20.5867329013        1.3322119173
  O        49.5439865546       18.2483825389        2.0731654532
  O        12.3593818603       18.6247456533        0.0047950127
  O        48.6932327274       14.1486460212       14.7461856336
  O         8.2099586759       14.2104350456        1.3276285759
  O        10.7354063157       14.5068062089        2.6694275498
  O        12.5718195566       14.5828054532        1.3335995936
  O        22.8451410507        2.0445129072       13.4817910292
  O        21.6062279791        3.5929278214       14.5838631574
  O        42.0586543170       34.1379415994       15.9737917367
  O        37.9818650035       33.1388116683       13.5676802843
  O        39.2188346937       31.5768650927       14.6624175516
  O        20.3087435265        1.0401936407       14.4971431823
  O        38.0250050357       33.1870799241        2.4199798755
  O        39.2188890292       31.5837397445        1.3321271963
  O        40.6524485967       33.7696803799        2.0652730880
  O        18.2554242210        1.3768159625        0.0018617232
  O        44.6222183088       35.1006148911       14.7536963321
  O        24.2054957990       -0.0000171699        1.3258083902
  O        22.7530790417        2.0575496318        2.5887485549
  O        21.6246532250        3.5960119248        1.3479265818
  O        27.4959620834       18.7517914825       13.4971870479
  O        26.7679287265       16.9304537220       14.6526958500
  O        30.6644644331       19.4085708630        0.0858793821
  O        33.5437014120       16.3308507559       13.6433011932
  O        34.2766022651       18.1801450103       14.7370154427
  O        29.5735015781       17.0716160194       14.5724133914
  O        33.6259034224       16.3313390678        2.4127050230
  O        34.3031858245       18.2542818110        1.4109016055
  O        31.6539394925       18.3134700772        2.1703536765
  O        30.3242864486       15.1595042259        0.0783477235
  O        28.5534990686       21.0354872216       14.9055146301
  O        28.5110541448       20.9510183814        1.4167827088
  O        27.4951712817       18.6078845938        2.7408169580
  O        26.6941573440       16.9308949502        1.4201184615
  O        13.1492870601       18.6926975570        2.5925929043
  O        13.9193662623       16.9162421060        1.4101149546
  O        50.5967194316       19.3502357482        0.0254243920
  O        47.6835136437       16.3270033843        2.4224833260
  O        46.9523423195       18.1761507406        1.3291213571
  O        11.0701988859       17.0153869054        1.4946189152
  O        47.6744386707       16.3357613224       13.6476635551
  O        46.9258102831       18.2360393484       14.6589457266
  O        49.5688801384       18.3176958066       13.9771428381
  O        10.3188044421       15.1000741767        0.0022074078
  O        52.6708069921       21.0278473520        1.2469096746
  O        12.1468586108       20.8912180155       14.6682143758
  O        13.1083601647       18.6135523238       13.3205464278
  O        13.9570585629       16.9871197606       14.6604091288
  O        29.9974928490       14.4312831470        2.6667843711
  O        28.0764588689       14.6590372222        1.4859680271
  O        32.1381284640       16.8594864729        0.0803819042
  O        30.9523663707       20.9501090555        2.4297786383
  O        32.9192322869       20.6546521582        1.3331583824
  O        29.5697561291       17.0755147703        1.5815880656
  O        30.8768164867       20.9580828509       13.6666625167
  O        32.8819824981       20.5836385148       14.6625563155
  O        31.6784576898       18.2587792081       13.9945650150
  O        28.2816594613       18.6758266830        0.0977489099
  O        32.4967104131       14.2122286312        1.3334145190
  O        32.3995665966       14.2199849600       14.8106299334
  O        29.8785227078       14.5128255686       13.4059197882
  O        28.0444948067       14.5856293915       14.7432230384
  O        17.8892265495        1.9667354489        2.6678887244
  O        18.9562841053        3.5272015629        1.4130649436
  O        39.1686328611       34.1390418055        0.0023169036
  O        43.2802798219       33.0590108972        2.3368718482
  O        42.0346088964       31.5064245766        1.2468122199
  O        20.3180481596        1.0372524793        1.4847769721
  O        43.2760819963       33.1826826312       13.5697416687
  O        42.0052999483       31.5841290281       14.5778670970
  O        40.5791525475       33.7754041686       13.9309821524
  O        22.3676792163        1.3850281523        0.0029306529
  O        36.6727779420       35.0999590275        1.2382848598
  O        16.4456930106        0.0645163918       14.6632117795
  O        17.9365360975        2.0434555062       13.3212932836
  O        18.9191080896        3.5931922697       14.6607883296
  O        29.8186757528       19.1278027905       12.1527165733
  O        29.7456838227       18.9760683346        4.0899813621
  O        31.1773429605       16.3510475037       11.9950575586
  O        31.3876862282       16.2727766618        4.0022566114
  O        32.4804930839       16.6982034813        9.8249656527
  O        29.8449142584       17.2145612545        9.2399425256
  O        30.4967200743       15.5978310462        6.4940497540
  O        31.5138510711       17.9509650289        6.9923904974
  O        30.7125949690       19.6481148173        9.5160877711
  O        28.8165211790       18.0955828593        6.4949926562
  O        39.4568370889       35.2438602605       11.9968330155
  O        19.1418078952        0.0047544139        3.9955946916
  O        41.9696113481       35.1729846491       12.0820777773
  O        21.6912868076       -0.0693520092        3.9011978250
  O        51.3653463854       18.6143345621       12.0002246645
  O        10.7511107091       18.7470571144        3.9100467692
  O        50.0792008705       16.4127265280       12.0866774956
  O         9.5243563974       16.4831100611        3.9963071587
 Zr         9.2986336962       16.0527121166       14.1774146692
 Zr        49.8381059400       16.0065131546        1.7512529306
 Zr        22.0739596798        0.0318290276       14.1834538855
 Zr        42.4614663840       35.1550089260        1.8063725382
 Zr        29.5931213456       19.1090070665       14.3200486384
 Zr        29.5740021834       19.1676717831        1.9209747890
 Zr        11.0397915202       19.0515987578        1.8330881943
 Zr        11.0456729379       19.1545731764       14.2454487922
 Zr        31.3450487989       16.0895972988        1.8912370107
 Zr        31.3902049913       16.0322399710       14.2796608939
 Zr        18.6019014861        0.0005244012        1.7682359473
 Zr        18.5071766150       -0.0059463302       14.2089936377
 Zr        12.3043760945       16.3235408350       15.9852769748
 Zr        48.6186599883       18.8333563949        0.0148723234
 Zr        20.3165127667        2.4756526748       15.9852116324
 Zr        40.6448511197       32.6890008323       15.9734390711
 Zr        28.3417319469       16.3439175108        0.0903490310
 Zr        32.6192703092       18.8438592504        0.0755741725
  O        30.1986187508       20.5071536156        6.3291782050
  H        31.0567927659       20.9560333759        6.2677111076
  H        30.0876888202       20.0187345337        5.4464389098
  O        31.0832566120       13.9921851541        8.2595680112
  H        30.7336669483       14.3039145818        7.3340207635
  H        30.4918910818       15.6797960488       11.8070498579
