     584
 i =      573, E =     -4836.2573829471
  C        11.8584626778       14.0531029252       13.7370951262
  C        12.4543114538       12.8892219816       13.0198347793
  C        11.7004509272       12.1698972989       12.0802055931
  C        12.2749178260       11.1065767811       11.3883027943
  C        13.6156363814       10.7364789024       11.6143963944
  C        14.3509121592       11.4402897287       12.5860345125
  C        13.7798861394       12.5063324606       13.2773057986
  C        14.2532017667        9.6454295377       10.8404243951
  C        14.2464209635        9.6535084462        9.4188416481
  C        13.7330391510       10.7562192118        8.6660010740
  C        49.1117076460       21.2012426806       13.8388197593
  C        48.5295375140       22.3643816027       13.1115087149
  C        49.2715872005       23.0303378879       12.1241985059
  C        48.6972445273       24.0682186460       11.3957800027
  C        47.3669906303       24.4651436805       11.6337609188
  C        46.6444927495       23.8172736473       12.6536240642
  C        47.2153934267       22.7764113664       13.3806844411
  C        46.7282508946       25.5390127938       10.8409614370
  C        46.7222782982       25.5178538417        9.4195302124
  C        47.2313096550       24.4105780782        8.6706882202
  C        14.8488654541        8.5669289109        8.7048048891
  C        14.8842675602        8.5933276504       11.5162166536
  C        49.1167273525       21.2048036383        2.1451086685
  C        48.5337330342       22.3714678745        2.8635600658
  C        49.2708042074       23.0335589972        3.8568546358
  C        48.6920734282       24.0691690002        4.5845392746
  C        47.3624330521       24.4641422082        4.3405639230
  C        46.6454894483       23.8201483780        3.3145767234
  C        47.2212900590       22.7832695651        2.5867979811
  C        46.7165913416       25.5319833716        5.1332740322
  C        46.7156831047       25.5139342333        6.5543840689
  C        47.2290112565       24.4092908852        7.3043210915
  C        40.6370650993       17.1318059658        7.3259464495
  C        40.6508594685       17.1603836308        4.5171776835
  C        11.8823119593       14.0868175095        2.2904469717
  C        12.4692904693       12.9110454677        2.9952687611
  C        11.7090810409       12.1800902333        3.9209303841
  C        12.2728066081       11.0972887208        4.5907609813
  C        13.6111579381       10.7214871315        4.3604101432
  C        14.3518551913       11.4348195152        3.4000639015
  C        13.7893345339       12.5164301888        2.7259820323
  C        14.2418324098        9.6236338559        5.1307186332
  C        14.2404307517        9.6425035882        6.5523565181
  C        13.7314349941       10.7513445813        7.3000297021
  C        22.3800165350        3.2561142657       13.6623288596
  C        23.0923465980        4.3706671537       12.9797668109
  C        24.0954375880        4.1011653329       12.0369586981
  C        24.7436319255        5.1489455640       11.3897305143
  C        24.4001841486        6.4888361047       11.6593895062
  C        23.4249670505        6.7492575434       12.6389632506
  C        22.7763018630        5.7027543166       13.2899315162
  C        25.0177565271        7.5986098134       10.8983678175
  C        24.9901043721        7.5969080848        9.4771279869
  C        24.2715350445        6.6108009562        8.7297619029
  C        38.2995053468       31.9306661380       13.8443162475
  C        37.5705614408       30.8414240901       13.1357349042
  C        36.6174585219       31.1466262501       12.1520436781
  C        36.0006604781       30.1268760386       11.4330018826
  C        36.3215512498       28.7772317257       11.6771579430
  C        37.2442558413       28.4798019624       12.6976962152
  C        37.8662589921       29.4982151220       13.4148348254
  C        35.7188570681       27.6860557988       10.8800204269
  C        35.7574914898       27.6967905249        9.4589736850
  C        36.4720612175       28.6934986059        8.7224773810
  C        25.6307201737        8.6573464720        8.7594703627
  C        25.6290305060        8.6630865705       11.5724001722
  C        38.3296524862       31.9621352635        2.1550760137
  C        37.6099878994       30.8857518351        2.8962493060
  C        36.6915525349       31.1946267381        3.9111791772
  C        36.0845489033       30.1761682660        4.6434401943
  C        36.3823153374       28.8231374003        4.3850324165
  C        37.2785430382       28.5245032456        3.3403608181
  C        37.8872556595       29.5396157648        2.6088294048
  C        35.7754784104       27.7240460036        5.1704376485
  C        35.7870974511       27.7155913540        6.5925819639
  C        36.4856513141       28.7029333264        7.3559347132
  C        46.1054332763       26.5960720156        7.2689140734
  C        46.0838413364       26.5830213106        4.4609098162
  C        22.3692275416        3.2514282735        2.3831195635
  C        23.0716721213        4.3589270875        3.0964044529
  C        24.0849133182        4.0846533759        4.0276619559
  C        24.7367497210        5.1265720712        4.6836642265
  C        24.3916842116        6.4698505851        4.4330019733
  C        23.4010563056        6.7362553479        3.4700746693
  C        22.7483729787        5.6955719168        2.8119810873
  C        25.0260099731        7.5768774933        5.1903046912
  C        24.9953250032        7.5853735390        6.6118092362
  C        24.2734205019        6.6057457277        7.3638877354
  C        26.6216495142       17.8637264854       13.7819844876
  C        25.3152206331       17.9077514763       13.0556190436
  C        25.0727532271       18.8824782279       12.0741904421
  C        23.8597862784       18.9017919206       11.3876403716
  C        22.8548627421       17.9501886172       11.6576158918
  C        23.0965127097       16.9975005601       12.6658841670
  C        24.3099030317       16.9725683372       13.3515632939
  C        21.5815635395       17.9329343662       10.8937421035
  C        21.5803662929       17.9012175936        9.4711714407
  C        22.7844551031       17.7665913121        8.7101099628
  C        34.4769204983       17.2502607748       13.9539056421
  C        35.7629818861       17.1930929400       13.1971939342
  C        35.9707260817       16.1962846292       12.2316566655
  C        37.1424674366       16.1778850855       11.4800714826
  C        38.1387343758       17.1524308331       11.6807935895
  C        37.9343693635       18.1310013727       12.6711984609
  C        36.7578471281       18.1567796688       13.4162338247
  C        39.3899098599       17.1494958079       10.8904352951
  C        39.3829529504       17.1539607701        9.4698439069
  C        38.1735472666       17.2690606355        8.7148669110
  C        20.3332604610       17.9195378836        8.7633487693
  C        20.3563930304       17.9416439840       11.5762925784
  C        34.4759835821       17.2475975783        2.1878827249
  C        35.7762031760       17.1725177129        2.9154308700
  C        35.9940188429       16.1784324633        3.8818659851
  C        37.1790248828       16.1596329453        4.6123215116
  C        38.1736514001       17.1325644556        4.3925020672
  C        37.9613808939       18.1016526754        3.3951858410
  C        36.7741091868       18.1263880540        2.6686857338
  C        39.4217875545       17.1475439101        5.1848179693
  C        39.3992099579       17.1551009165        6.6050197876
  C        38.1818362213       17.2687809382        7.3483393395
  C        35.1509883586       26.6394181207        7.2966482926
  C        35.1805095341       26.6559043115        4.4879683804
  C        26.5711879497       17.8246697173        2.3317593655
  C        25.2570932982       17.8675632225        3.0382398635
  C        24.9962856268       18.8639368713        3.9910844228
  C        23.7779702309       18.8868589101        4.6639578350
  C        22.7918855523       17.9127728774        4.4086070229
  C        23.0476860398       16.9411910276        3.4240395526
  C        24.2664275339       16.9163981121        2.7489809149
  C        21.5283314019       17.8914686664        5.1812931679
  C        21.5528782778       17.8784085313        6.6027682919
  C        22.7710164204       17.7558069204        7.3439814091
  C        14.0467362985       17.8284065919        2.2946027844
  C        15.3506029258       17.8834248517        3.0208300552
  C        15.6079185522       18.8842761829        3.9708106989
  C        16.8167944176       18.9025177239        4.6640788086
  C        17.8027704756       17.9226760046        4.4297448206
  C        17.5501569289       16.9461873567        3.4476474420
  C        16.3408154788       16.9232557198        2.7560299917
  C        19.0721878512       17.9029200522        5.1982389284
  C        19.0717236553       17.8984792436        6.6208059015
  C        17.8651679020       17.8012899888        7.3829133715
  C        46.8065926565       17.2190581449        2.1634585689
  C        45.5171069578       17.1589194707        2.9097538858
  C        45.3103644585       16.1810538547        3.8946900679
  C        44.1293855454       16.1657453971        4.6317325657
  C        43.1270164603       17.1287168929        4.4048899489
  C        43.3307981923       18.0861963690        3.3932779982
  C        44.5124330842       18.1052204059        2.6572876217
  C        41.8753732700       17.1430577124        5.1944610976
  C        41.8829189570       17.1435891268        6.6159831986
  C        43.0930829229       17.2381462500        7.3728598318
  C        20.3188809654       17.9070623626        7.3284709021
  C        20.2959472366       17.8834400323        4.5151887845
  C        46.7884688119       17.2319309540       13.8845961904
  C        45.4867774606       17.1306501214       13.1679360933
  C        45.2663980211       16.1321001434       12.2077845832
  C        44.0796542977       16.1107842186       11.4800169519
  C        43.0867177122       17.0851438190       11.6972737416
  C        43.2972797340       18.0538188136       12.6957237825
  C        44.4850415673       18.0813542081       13.4183887619
  C        41.8418177501       17.1120427181       10.9012325941
  C        41.8660758910       17.1255688975        9.4810268739
  C        43.0851655723       17.2266966989        8.7392773386
  C        46.1115387980       26.5991000295        8.7028718290
  C        46.1085347660       26.5989119123       11.5123069537
  C        14.0468730649       17.8321427783       13.7036784740
  C        15.3687243590       17.9076657905       13.0144712083
  C        15.6415820848       18.9208260396       12.0830926599
  C        16.8710390183       18.9582079748       11.4288198164
  C        17.8560297121       17.9816316450       11.6798202657
  C        17.5902148120       16.9980648062       12.6499602990
  C        16.3627954702       16.9600697376       13.3076981939
  C        19.1233735875       17.9546975630       10.9102629012
  C        19.0984606905       17.9237795050        9.4887712690
  C        17.8783076880       17.8125892206        8.7489448378
  C        28.8033371713       14.0942002961        2.3997350294
  C        28.1878054664       12.9250520001        3.0919930999
  C        28.8979064831       12.2014731328        4.0615582148
  C        28.2941754147       11.1292869994        4.7139399991
  C        26.9654856731       10.7582281495        4.4236505998
  C        26.2776752396       11.4632790878        3.4192194491
  C        26.8792407659       12.5345516354        2.7639974583
  C        26.2879142356        9.6837756757        5.1856254949
  C        26.2610605510        9.7188312218        6.6069486647
  C        26.7667452428       10.8298446785        7.3546933725
  C        32.1797788901       21.2473134569        2.1487345931
  C        32.7734997650       22.4134067364        2.8648342760
  C        32.0318779877       23.0766750173        3.8545404828
  C        32.6029532136       24.1146092857        4.5837595446
  C        33.9316807801       24.5156146105        4.3455877642
  C        34.6552314981       23.8707479928        3.3243388993
  C        34.0864759841       22.8281884952        2.5957970429
  C        34.5633770887       25.5872537941        5.1474396652
  C        34.5551123711       25.5575773507        6.5692165662
  C        34.0391084723       24.4460740313        7.3080085431
  C        25.6357064121        8.6498380752        7.3255559884
  C        25.6558953786        8.6288580984        4.5122656053
  C        32.1314843845       21.2364909761       13.9121437741
  C        32.7014842774       22.3904840172       13.1569257667
  C        31.9613068892       23.0340211889       12.1533136754
  C        32.5339844827       24.0616492909       11.4061193923
  C        33.8583781960       24.4769302745       11.6463213476
  C        34.5808229853       23.8464226270       12.6777639233
  C        34.0148649980       22.8125761083       13.4175188425
  C        34.4963146383       25.5563452575       10.8576771421
  C        34.5184378589       25.5434212512        9.4358711245
  C        34.0198688031       24.4400353690        8.6745584565
  C        40.6281407819       17.1266862460        8.7595206149
  C        40.6129902883       17.1440347849       11.5686752728
  C        28.7433670238       14.0657406769       13.8179578428
  C        28.1222983584       12.9230614402       13.0826044225
  C        28.8500691778       12.2080153763       12.1192618872
  C        28.2526552928       11.1599284850       11.4228577181
  C        26.9122126624       10.7997677461       11.6675283986
  C        26.2013540716       11.5011821119       12.6589051815
  C        26.7964189932       12.5508273876       13.3552356598
  C        26.2541935682        9.7190285737       10.8958940338
  C        26.2459234572        9.7359931585        9.4744200417
  C        26.7598123077       10.8380425922        8.7208215017
  C        18.1285581060        3.1901906486        2.3193366030
  C        17.3937274495        4.2861404660        3.0122711178
  C        16.3827701656        4.0027450919        3.9433348582
  C        15.7335883143        5.0396836332        4.6096616893
  C        16.0804559895        6.3845758875        4.3697952469
  C        17.0643599816        6.6589888842        3.4019341860
  C        17.7143633626        5.6245910973        2.7333315453
  C        15.4563594320        7.4897667952        5.1356661474
  C        15.4722034900        7.4877721953        6.5573295323
  C        16.1740788930        6.4935849441        7.3094216963
  C        42.9378457187       31.8600625380        2.0780097825
  C        43.6343538411       30.7737503449        2.8249841539
  C        44.5744946693       31.0915730069        3.8171108350
  C        45.1780495249       30.0825382343        4.5615522596
  C        44.8555692772       28.7306831480        4.3348609086
  C        43.9346279345       28.4201620568        3.3164261610
  C        43.3268047185       29.4285399057        2.5728648339
  C        45.4727728916       27.6475842144        5.1317240096
  C        45.4630724381       27.6593347533        6.5530266600
  C        44.7620962083       28.6554043765        7.3026679562
  C        14.8439442385        8.5600025568        7.2707171398
  C        14.8616377696        8.5623730403        4.4583801690
  C        42.9184955906       31.9287028851       13.7691063130
  C        43.6494725231       30.8364677355       13.0662291224
  C        44.6172135705       31.1334719015       12.0944887545
  C        45.2338997482       30.1082554111       11.3832077620
  C        44.8979748272       28.7620733010       11.6244930427
  C        43.9605657986       28.4722735526       12.6334731914
  C        43.3390963279       29.4960176909       13.3426893309
  C        45.5047799831       27.6658407630       10.8385442551
  C        45.4802518662       27.6688839385        9.4175854916
  C        44.7718078199       28.6608715544        8.6690133016
  C        35.1339631869       26.6309617395        8.7313757119
  C        35.1070250573       26.6151973649       11.5405874317
  C        18.1438646477        3.2481981734       13.7038884043
  C        17.4234045233        4.3433112988       12.9938067194
  C        16.4086978889        4.0501952657       12.0704461194
  C        15.7594873821        5.0796984370       11.3941429759
  C        16.1131120809        6.4252635972       11.6159223658
  C        17.1040940407        6.7105404672       12.5729891010
  C        17.7523611287        5.6827871010       13.2536196698
  C        15.4816082839        7.5202129936       10.8437498155
  C        15.4856416633        7.5035175992        9.4226855496
  C        16.1812627026        6.5017376501        8.6750499927
  H        10.6683000886       12.4646906306       11.9045739927
  H        11.6873644045       10.5475465140       10.6632196564
  H        15.3880377361       11.1650617028       12.7662263941
  H        14.3507595338       13.0700525243       14.0112621579
  H        13.3669724929       11.6282782296        9.2000358750
  H        50.2932058427       22.7109737152       11.9323689252
  H        49.2767601755       24.5859565806       10.6346172001
  H        45.6154672713       24.1157177117       12.8429310479
  H        46.6532623034       22.2514955140       14.1494285943
  H        47.5987655950       23.5408018081        9.2075424578
  H        14.8661356913        8.5845347951       12.6045434233
  H        50.2896104111       22.7095640023        4.0562941733
  H        49.2665044759       24.5852104827        5.3506314457
  H        45.6169725130       24.1180395040        3.1218920256
  H        46.6638660993       22.2595578595        1.8139218674
  H        47.5948339287       23.5383993728        6.7680855012
  H        40.6548214741       17.1291908914        3.4293314139
  H        48.6873689344       14.0946740489       15.7954415173
  H        10.6759172137       12.4712451924        4.0964924137
  H        11.6793942870       10.5280545724        5.3030228332
  H        15.3869604465       11.1546302819        3.2158479927
  H        14.3633749147       13.0845246863        1.9977985345
  H        13.3648494884       11.6204174647        6.7619726000
  H        47.9302454113       14.2181130869        1.7159413219
  H        47.7797846387       14.3731324118       14.4908994915
  H        49.0858899556       18.5550582066        2.8715095837
  H        10.4167286254       14.1339986404        0.0043550039
  H        24.3456864033        3.0645289616       11.8228484880
  H        25.5225146466        4.9404078227       10.6595260292
  H        23.1520178794        7.7804524902       12.8534064980
  H        22.0034290414        5.8949492690       14.0301555028
  H        23.6893640153        5.8682499392        9.2672103506
  H        36.3855594942       32.1903014981       11.9533012355
  H        35.2616394926       30.3663008348       10.6715721777
  H        37.4985854932       27.4401073283       12.8930315443
  H        38.6048114647       29.2767369885       14.1816106091
  H        37.0399171408       29.4407467551        9.2691091991
  H        25.6652569493        8.6429230266       12.6601617753
  H        36.4760538605       32.2393954094        4.1237894362
  H        35.3664114660       30.4216481139        5.4226881006
  H        37.5203144731       27.4840534743        3.1335788515
  H        38.6019553353       29.3137686901        1.8211913118
  H        37.0646445931       29.4570722461        6.8306514284
  H        46.1145416303       26.6006551394        3.3732195418
  H        44.6682080393       35.0241096336       15.7694435417
  H        24.3553150634        3.0485530465        4.2186487240
  H        25.5253566334        4.9092351424        5.4009148546
  H        23.1226162932        7.7688276017        3.2695039251
  H        21.9693322875        5.8968275549        2.0805490247
  H        23.6930364559        5.8592220753        6.8299011501
  H        44.9184300977       34.2794326161        1.7139933073
  H        44.7937408619       34.1009763652       14.4479144702
  H        40.6723771825       33.2021207849        2.7912332871
  C        23.7179769373        2.3028933210        0.0064178917
  H        25.8456781037       19.6184910466       11.8613295252
  H        23.6773350688       19.6651298112       10.6342293071
  H        22.3333433751       16.2530026210       12.8834560023
  H        24.5059841747       16.2240549547       14.1158013928
  H        23.7251813306       17.6421631436        9.2384694472
  H        35.1975588417       15.4456157807       12.0844605722
  H        37.3056062431       15.3984469497       10.7387658750
  H        38.6974006565       18.8907840955       12.8274528654
  H        36.5797603959       18.9262575740       14.1639277118
  H        37.2362797249       17.3897450507        9.2507066120
  H        20.3636385976       17.9898514866       12.6638356070
  H        35.2198164357       15.4323689599        4.0493368947
  H        37.3517780081       15.3846163711        5.3561144593
  H        38.7246008565       18.8577481769        3.2228372128
  H        36.5869123754       18.8901572245        1.9174555471
  H        37.2505752645       17.3897581759        6.8027491343
  H        35.1496518489       26.6837528872        3.4004200299
  H        28.5054741198       21.0854282200       15.9620328251
  H        25.7608006319       19.6123356890        4.1869673071
  H        23.5750518683       19.6640199078        5.3976719569
  H        22.2947326413       16.1823432142        3.2211579507
  H        24.4800199125       16.1546111174        2.0030187458
  H        23.7012294015       17.6229306189        6.7997070934
  H        28.9815435437       21.7308542928        1.7766128220
  H        29.1545800761       21.7481828652       14.6150425654
  H        32.1225415797       18.5989025235        2.9716033964
  H        27.4029264385       19.0728942894        0.0888459739
  H        14.8502445101       19.6437343789        4.1505442767
  H        17.0124812693       19.6850551570        5.3940662516
  H        18.3008372181       16.1818163078        3.2574539229
  H        16.1345687103       16.1558891596        2.0136940981
  H        16.9221833962       17.6857643379        6.8564779585
  H        46.0921349711       15.4471067834        4.0756162658
  H        43.9685237169       15.4002498544        5.3876504209
  H        42.5643199506       18.8375555417        3.2150420185
  H        44.6878813458       18.8584868297        1.8928414673
  H        44.0339679879       17.3514111466        6.8419610662
  H        20.2893241557       17.9166441226        3.4271530070
  H        46.0405883142       15.3883469707       12.0336492020
  H        43.9089657229       15.3367981820       10.7349226585
  H        42.5340143389       18.8097872455       12.8678601426
  H        44.6719525660       18.8472383496       14.1669852591
  H        44.0200517669       17.3301641986        9.2824653935
  H        46.1437539263       26.6205365044       12.5998733767
  H        52.7371041771       21.0645811160        0.1995417851
  H        14.8801558440       19.6728150473       11.8880800389
  H        17.0810190708       19.7468524652       10.7094563075
  H        18.3418324371       16.2377306993       12.8521289963
  H        16.1428615866       16.1872520591       14.0402126788
  H        16.9451390640       17.7056384413        9.2937739455
  H        52.3340968832       21.6773257992       14.2746417368
  H        52.0142245528       21.7016698124        1.5035536077
  H        49.0745865965       18.6016128383       13.1945344205
  H        13.2476433052       19.0155894153       15.9723452399
  H        29.9193750591       12.4942927358        4.2933397423
  H        28.8478259179       10.5671343379        5.4627859758
  H        25.2508673382       11.1878828371        3.1874307550
  H        26.3450006856       13.0998747745        2.0043255626
  H        27.1388161862       11.6961199580        6.8160500971
  H        31.0126992052       22.7526327224        4.0504453505
  H        32.0222487263       24.6268204825        5.3476555093
  H        35.6834686210       24.1720086697        3.1348304126
  H        34.6505384074       22.3049000827        1.8271050300
  H        33.6765208742       23.5786761754        6.7639658948
  H        25.6996361020        8.6002823219        3.4248977543
  H        30.9414543481       22.7097443817       11.9590746713
  H        31.9527696005       24.5588273678       10.6325731744
  H        35.6063834127       24.1555888404       12.8686444668
  H        34.5792139208       22.3022907211       14.1943510392
  H        33.6427813170       23.5683809809        9.2019497674
  H        40.6072465601       17.1119292695       12.6564589833
  H        32.5149938205       14.1458276291        0.2571423119
  H        29.8866312300       12.4824842384       11.9368561224
  H        28.8232886792       10.6015715456       10.6838809519
  H        25.1643031012       11.2353663615       12.8533468856
  H        26.2453038413       13.1097143180       14.1078113782
  H        27.1258769742       11.7103885424        9.2542735248
  H        33.3138736466       14.2304165050       14.4623863423
  H        33.4095141194       14.3883067379        1.6138897916
  H        32.1352167365       18.5538949154       13.2027267745
  H        30.2267701846       14.1924621783        0.0855263894
  H        16.1180688472        2.9645928627        4.1313823170
  H        14.9477093743        4.8169918124        5.3282097293
  H        17.3420236979        7.6931380647        3.2088129485
  H        18.4927294645        5.8304230898        2.0024777852
  H        16.7398814925        5.7362252209        6.7751200922
  H        44.8098046336       32.1376199364        3.9982820752
  H        45.9133667321       30.3320895946        5.3233000998
  H        43.6756689022       27.3784714664        3.1386216234
  H        42.5939114939       29.1976108402        1.8033401083
  H        44.1861916273       29.4041843968        6.7663555779
  H        14.8375674288        8.5465744920        3.3701706430
  H        44.8656907097       32.1742938194       11.9003814551
  H        45.9847974678       30.3402856857       10.6311300928
  H        43.6955974673       27.4347131451       12.8259679070
  H        42.5898887314       29.2823828445       14.1013160091
  H        44.2038224201       29.4145674680        9.2065738868
  H        35.0594310282       26.6313833575       12.6277754200
  H        36.6097878655       35.1306012152        0.2058642838
  H        16.1382230579        3.0102533343       11.9019056956
  H        14.9672088208        4.8516173375       10.6844034649
  H        17.3863460116        7.7464875633       12.7490326766
  H        18.5344969222        5.8942316591       13.9788735670
  H        16.7527884419        5.7509976792        9.2126875478
  H        36.2736334255       34.4846422048       14.2648872312
  H        36.4018336331       34.2029711254        1.5158593795
  H        40.5672032384       33.2051969705       13.1416015832
  H        17.4658845619        1.9507227101       15.9821936844
  H        28.8881985990       19.1331751835        4.4180292971
  H        29.9034647748       19.8042521064       11.6286214192
  H        31.2934045183       15.4973855563       11.6789742021
  H        30.9238326909       15.4361394613        4.3542469760
  H        27.9294557073       17.7311713391        6.5069323263
  H        29.1248312359       15.5240505542        6.5932874749
  H        31.7446469968       19.2965196859        9.2284858797
  H        32.6479919692       16.2126833811        9.8419383666
  H        28.3529324590       17.6169737060       10.8830538849
  H        18.7808421500        0.7729868229        4.3482939744
  H        40.4336029446       35.2381475759       11.9307547504
  H        42.2626104238       34.3571557990       11.6146070887
  H        21.9972385724        0.8082238863        4.2160926293
  H        11.5974046970       18.7125474299        4.3861997558
  H        52.2654705218       18.4256309414       11.6692792484
  H        49.2549810470       16.4746092260       11.5782983679
  H        10.1504046448       15.7986622307        4.2979880683
  H        50.8498800802       17.6899991588       11.9462936125
  H        10.0464273581       17.3950384892        4.0564911934
  H        20.6320404259       -0.0346405225        4.0051929395
  H        39.1065992355       36.1360627368       11.7156023932
 Ni        30.7840043611       17.7141734002       10.8263782561
 Ni        31.1552848026       16.2818003878        7.8217498111
 Ni        29.6770752053       18.9912278965        7.9881117358
 Ni        30.1752260131       17.4331128933        5.1686684819
  O        10.6497845525       14.3652343759       13.4809864864
  O        12.6132487011       14.6574198959       14.5788385861
  O        49.1482999584       16.8452108420       15.9849575742
  O        50.3198239793       20.8765878811       13.5699218631
  O        48.3485230749       20.5911644342       14.6623155455
  O        11.0531255484       17.0512723477       14.4951218370
  O        50.3234355478       20.8811430043        2.4099772165
  O        48.3475507874       20.5857827640        1.3314884807
  O        49.5443921586       18.2485174107        2.0725405496
  O        12.3588822763       18.6244947897        0.0043306364
  O        48.6931321828       14.1483014291       14.7464501909
  O         8.2098711708       14.2102478121        1.3275365681
  O        10.7347379676       14.5074396475        2.6691489606
  O        12.5717539505       14.5827998945        1.3337456602
  O        22.6719213047        2.0596566065       13.3290742692
  O        21.5322315072        3.5929599259       14.5650761606
  O        42.1236211713       34.1354277599       15.9141978974
  O        37.9805208981       33.1382041904       13.5692886422
  O        39.2179151759       31.5761078060       14.6609496612
  O        20.3142828618        1.0320566687       14.5566859826
  O        38.0250458393       33.1816862569        2.4158001671
  O        39.2248836910       31.5833047554        1.3272798047
  O        40.6677112430       33.7701111654        2.0033683812
  O        18.2531994909        1.3832428958        0.0115170233
  O        44.5909621520       35.0128760719       14.7291638802
  O        24.2440853568       -0.0757091475        1.3326841806
  O        22.5980601212        2.0471320243        2.7464213148
  O        21.6024896352        3.5982316793        1.4190458945
  O        27.4985948826       18.7488714039       13.4894159154
  O        26.7656891657       16.9326795079       14.6512123598
  O        30.6725723938       19.4073986870        0.0751050656
  O        33.6269269759       16.3272259580       13.7381723988
  O        34.3128204631       18.2452413146       14.7409082185
  O        29.5746992374       17.0681021448       14.5715032487
  O        33.6178001854       16.3302989407        2.4201652422
  O        34.3071369287       18.2469812307        1.4137118507
  O        31.6563164692       18.3119674186        2.1703094017
  O        30.3249407351       15.1585464864        0.0935151669
  O        28.5535737641       21.0338526910       14.8950342018
  O        28.5115640298       20.9598789962        1.4162842614
  O        27.4583522470       18.6765604718        2.6665732542
  O        26.6947668810       16.9290320282        1.4181628983
  O        13.1488848005       18.6928961941        2.5925392026
  O        13.9194219657       16.9162447543        1.4101807184
  O        50.5966111599       19.3512479844        0.0198068333
  O        47.6837595351       16.3267776304        2.4223764378
  O        46.9521204335       18.1759588412        1.3295094173
  O        11.0700832414       17.0152707698        1.4944411534
  O        47.6765793066       16.3349220966       13.6481736555
  O        46.9296401812       18.2355691315       14.6606365019
  O        49.5682026519       18.3119916708       13.9774981700
  O        10.3187966465       15.0997996870        0.0023036897
  O        52.6708940908       21.0279844316        1.2460895530
  O        12.1407381758       20.8912397757       14.6648432305
  O        13.1087277120       18.6132984540       13.3200963219
  O        13.9576936348       16.9871840889       14.6600535801
  O        29.9910318331       14.4446816244        2.7376875463
  O        28.0895185463       14.6538331308        1.4994046121
  O        32.1447264801       16.8622078013        0.0947246844
  O        30.9680304906       20.9552424689        2.4131431396
  O        32.9486856819       20.6038850704        1.3458449725
  O        29.5722205258       17.0747832833        1.5868756131
  O        30.8916150610       20.9566671137       13.7371125409
  O        32.9425980699       20.5891615860       14.6594985892
  O        31.6921310550       18.2578134700       14.0128617583
  O        28.2893868759       18.6767869494        0.0831496434
  O        32.4924831664       14.2126996247        1.3337842352
  O        32.4090416276       14.2139091089       14.8176633319
  O        29.9153889649       14.4387674493       13.4795931874
  O        28.0406259849       14.5899881819       14.7505831313
  O        17.8887677503        1.9789974092        2.6653231615
  O        18.9568588514        3.5363325946        1.4141515685
  O        39.1718694236       34.1365745265        0.0047852293
  O        43.2749799889       33.0626599803        2.3380761616
  O        42.0334078514       31.5096125111        1.2433020725
  O        20.3767567905        1.0254895274        1.4195166723
  O        43.2393763824       33.1383122684       13.4877569341
  O        41.9993269746       31.5783533151       14.5796774858
  O        40.5745012675       33.7803677006       13.9216739222
  O        22.5146064719        1.4701960439       -0.0026121833
  O        36.6765702839       35.0990060898        1.2490438908
  O        16.4421047330        0.0640280038       14.6626226502
  O        17.9380710103        2.0437909472       13.3224758108
  O        18.9127343045        3.5951368888       14.6622245228
  O        29.9019339846       18.9764002070       12.1441356883
  O        29.7770918300       19.0473502413        4.0083448201
  O        31.3377170258       16.3336784101       12.1742325093
  O        31.3931316256       16.2537615187        4.0752885110
  O        31.7367580884       16.4130924485        9.5794907621
  O        28.8515674125       16.8611701637       10.5011960208
  O        30.0436708251       15.6853797969        6.3275346757
  O        31.2196488098       18.0227737300        6.8333355832
  O        30.8394995061       19.2638122196        9.5805746146
  O        28.6818293163       18.3146995272        6.3227825456
  O        39.3864065637       35.2444129300       11.9959203056
  O        19.1318158341       -0.0117541938        3.8961345375
  O        41.9632536282       35.1618588643       12.0674833633
  O        21.6899581249       -0.0710227470        3.9202948689
  O        51.3663463775       18.6112839158       11.9980438963
  O        10.7513319476       18.7470699058        3.9091358749
  O        50.0790738446       16.4122675384       12.0862550215
  O         9.5244036504       16.4833353307        3.9963137526
 Zr         9.2974704480       16.0511838473       14.1775553190
 Zr        49.8374178663       16.0063244928        1.7516143654
 Zr        22.0560177187        0.0516088265       14.1354099120
 Zr        42.4850569883       35.1409460489        1.6898744447
 Zr        29.6141102305       19.1086868621       14.2791519514
 Zr        29.5812043059       19.1897055779        1.8655643086
 Zr        11.0387369615       19.0512770977        1.8306425735
 Zr        11.0430409866       19.1495390190       14.2392097659
 Zr        31.3634961928       16.1050494650        1.8750582814
 Zr        31.4052164682       16.0264820359       14.3022918679
 Zr        18.6155921254        0.0191184793        1.8260780437
 Zr        18.4959624412       -0.0084869830       14.2432444764
 Zr        12.3038143913       16.3232737939       15.9852862024
 Zr        48.6185156658       18.8324730510        0.0142148162
 Zr        20.3121223139        2.4965850812       15.9998933560
 Zr        40.6307179965       32.6950619082       15.9555807806
 Zr        28.3480870058       16.3511780884        0.0881615123
 Zr        32.6383301949       18.8548259749        0.0622170273
  H        32.0723626445       18.4827738401        6.7608366624
  O        32.8573254625       15.6061472669        6.4960650228
  H        33.6774293463       16.1203018958        6.5727175699
  H        32.4879144135       15.8464091536        5.6006410646
  O        28.2555411528       20.0694492937        8.5907513779
  H        28.8405574422       16.1907153055       11.2137898626
  H        27.4755741634       19.8351221852        8.0586009950
  O        30.2468399802       20.7316501468        6.7491615924
  H        30.0480624950       20.3973633689        5.8464653363
  H        29.3958714453       21.0761994002        7.1096188131
  H        23.4410386080        3.3585506440       -0.0241060350
  H        24.3412633397        2.0728444104       -0.8604721831
  H        24.2988880690        2.1028492610        0.9094986102
