     578
 i =      187, E =     -4812.1700612159
  C        11.8589146650       14.0536018995       13.7364123731
  C        12.4564354034       12.8907750778       13.0180373162
  C        11.7046080554       12.1715111508       12.0767381900
  C        12.2810172024       11.1093249553       11.3844080147
  C        13.6217463566       10.7399064405       11.6118319476
  C        14.3551238764       11.4439226124       12.5848013411
  C        13.7822174399       12.5089160532       13.2762701944
  C        14.2611877586        9.6491481653       10.8384940646
  C        14.2564804378        9.6570360517        9.4168053821
  C        13.7434441683       10.7592370669        8.6629258717
  C        49.1270698379       21.2331860569       13.8744739562
  C        48.5503867887       22.4012459518       13.1475086576
  C        49.3003579718       23.0684104228       12.1663632665
  C        48.7334536534       24.1075985469       11.4331963367
  C        47.4030086347       24.5094564930       11.6620035583
  C        46.6721792708       23.8608248344       12.6757706477
  C        47.2345996513       22.8158898191       13.4050899345
  C        46.7726717095       25.5870778657       10.8647102346
  C        46.7615560521       25.5573958997        9.4429470618
  C        47.2616170554       24.4423675105        8.6994389790
  C        14.8602983543        8.5706205826        8.7035682125
  C        14.8918801315        8.5971862334       11.5151770416
  C        49.1133401236       21.2034151307        2.1504097212
  C        48.5279736331       22.3648277155        2.8775625102
  C        49.2671474233       23.0253649882        3.8706309373
  C        48.6908572562       24.0599458195        4.6021009748
  C        47.3605322111       24.4569300027        4.3637318699
  C        46.6402055066       23.8122526054        3.3399909991
  C        47.2137363443       22.7763521503        2.6081858613
  C        46.7220434611       25.5318567584        5.1547805509
  C        46.7337205052       25.5281743268        6.5764868428
  C        47.2493065617       24.4290439721        7.3328874493
  C        40.6321970122       17.1444199121        7.3274409902
  C        40.6604106651       17.1836844674        4.5185297341
  C        11.8832016215       14.0865998524        2.2906662332
  C        12.4726183890       12.9109850374        2.9950295622
  C        11.7149873840       12.1774122789        3.9207553956
  C        12.2816588780       11.0949908527        4.5891375175
  C        13.6206600076       10.7216963853        4.3576568279
  C        14.3588240151       11.4377510953        3.3973801258
  C        13.7933294848       12.5189077092        2.7247192577
  C        14.2541830671        9.6248457273        5.1280006680
  C        14.2527725751        9.6447454802        6.5498312149
  C        13.7429697621       10.7537420997        7.2968819386
  C        22.5114932153        3.2447598328       13.7479746812
  C        23.2251043401        4.3507132324       13.0481170957
  C        24.2221838569        4.0715985153       12.1018195714
  C        24.8478409443        5.1117541461       11.4194018418
  C        24.4919326778        6.4531259095       11.6631637032
  C        23.5231530612        6.7238587111       12.6466287380
  C        22.8929790277        5.6854984611       13.3274768145
  C        25.0952883518        7.5602944415       10.8865932338
  C        25.0660756986        7.5528654104        9.4650032244
  C        24.3655987552        6.5518392077        8.7195130188
  C        38.3027271638       31.9311133759       13.8455190913
  C        37.5730461599       30.8415820666       13.1383453270
  C        36.6128774009       31.1443643049       12.1611069436
  C        35.9972870410       30.1228168382       11.4438411807
  C        36.3281129590       28.7748097000       11.6830099611
  C        37.2578077800       28.4794267490       12.6974607919
  C        37.8774137068       29.4996046442       13.4135830854
  C        35.7288709071       27.6826904434       10.8858576433
  C        35.7590530824       27.6999840809        9.4647785667
  C        36.4638238668       28.7034347308        8.7278369053
  C        25.6856374900        8.6241161307        8.7441287082
  C        25.6911804420        8.6365071621       11.5564670328
  C        38.3283029230       31.9631329771        2.1614814796
  C        37.6036954441       30.8933033200        2.9047902884
  C        36.6803994968       31.2084082883        3.9135908923
  C        36.0659218185       30.1944190096        4.6455601812
  C        36.3598435383       28.8399936241        4.3912678813
  C        37.2606097980       28.5349328862        3.3524256612
  C        37.8779853601       29.5455143850        2.6222729836
  C        35.7476846219       27.7439702485        5.1765083582
  C        35.7688805461       27.7314031890        6.5983612578
  C        36.4690514210       28.7180240340        7.3612279813
  C        46.1355849333       26.6207330534        7.2866375118
  C        46.0880660777       26.5802191586        4.4787423549
  C        22.4600200209        3.2554804096        2.2623165431
  C        23.1525807255        4.3648012782        2.9851424653
  C        24.1557573770        4.0800057912        3.9250159963
  C        24.7819334014        5.1111560085        4.6209380046
  C        24.4246269995        6.4561329742        4.3991769586
  C        23.4446174337        6.7342886765        3.4276775588
  C        22.8138553436        5.7033951300        2.7322923641
  C        25.0529950576        7.5553004649        5.1732944394
  C        25.0447382133        7.5497924752        6.5959652281
  C        24.3535639252        6.5515520605        7.3528333077
  C        26.6254949709       17.8625166296       13.7814026093
  C        25.3171220789       17.9061528448       13.0573593637
  C        25.0670098629       18.8878832208       12.0855268679
  C        23.8535879413       18.9075247345       11.3999714292
  C        22.8540076326       17.9481216683       11.6621179523
  C        23.1015186135       16.9891114752       12.6627027148
  C        24.3162476836       16.9644985450       13.3468538376
  C        21.5805333404       17.9309714788       10.8976210930
  C        21.5795115940       17.9000658080        9.4749640414
  C        22.7838793562       17.7653843796        8.7148180305
  C        34.4217037218       17.2257497367       13.9089572470
  C        35.7107466060       17.1643889168       13.1574431960
  C        35.9092200999       16.1980779435       12.1584346105
  C        37.0910911624       16.1803897746       11.4214066468
  C        38.1075805504       17.1248384262       11.6663963141
  C        37.9102684101       18.0708937459       12.6900493802
  C        36.7258825468       18.0957455470       13.4223119434
  C        39.3658884257       17.1281778636       10.8859997953
  C        39.3668157218       17.1523046327        9.4647213483
  C        38.1634937021       17.2855241662        8.7023183592
  C        20.3329688753       17.9192614748        8.7659705296
  C        20.3550301297       17.9394426054       11.5791831695
  C        34.4786375557       17.2503799850        2.1828270476
  C        35.7847536478       17.1800043601        2.9019183002
  C        36.0054724238       16.1913654858        3.8719589624
  C        37.1905381816       16.1770662227        4.6014845098
  C        38.1831436586       17.1509625560        4.3792175884
  C        37.9700762928       18.1142230784        3.3762129037
  C        36.7819967861       18.1334851649        2.6500392422
  C        39.4274400888       17.1708620475        5.1784718113
  C        39.3984338788       17.1760128343        6.5991019698
  C        38.1777265088       17.2950484569        7.3357973477
  C        35.1415088512       26.6502509537        7.3021162713
  C        35.1432527888       26.6815613616        4.4936732589
  C        26.5871649073       17.7928628454        2.3651032376
  C        25.2699634714       17.8449855918        3.0628403248
  C        25.0127765800       18.8387340669        4.0190716902
  C        23.7885647812       18.8714244325        4.6804317835
  C        22.7953766413       17.9076789368        4.4140270423
  C        23.0478140682       16.9398719306        3.4246363614
  C        24.2705770642       16.9077059700        2.7575493930
  C        21.5304148172       17.8895061125        5.1843503534
  C        21.5539580628       17.8761089543        6.6061996096
  C        22.7714371866       17.7528040295        7.3486673530
  C        14.0476247016       17.8283845187        2.2947730027
  C        15.3517277126       17.8836855953        3.0207059174
  C        15.6089194412       18.8840994531        3.9713352918
  C        16.8178085069       18.9025294103        4.6646913650
  C        17.8046030652       17.9233624622        4.4303207384
  C        17.5521599003       16.9475268873        3.4473650595
  C        16.3428360411       16.9244040430        2.7555139491
  C        19.0738297272       17.9032803088        5.1996863618
  C        19.0725907522       17.8991990310        6.6224045022
  C        17.8656102901       17.8034992919        7.3840313823
  C        46.8078820761       17.2210786093        2.1653701750
  C        45.5212912875       17.1668851626        2.9162969305
  C        45.3149694033       16.1931627155        3.9053598502
  C        44.1358225022       16.1832696642        4.6454234566
  C        43.1349267389       17.1473493056        4.4169031647
  C        43.3393013778       18.1019585782        3.4026174644
  C        44.5189857508       18.1157009861        2.6638457844
  C        41.8812165255       17.1632975806        5.2027366996
  C        41.8817333464       17.1573322431        6.6242595214
  C        43.0879336108       17.2451616389        7.3880658577
  C        20.3194250989       17.9066123289        7.3309492208
  C        20.2982214186       17.8827530568        4.5175889890
  C        46.7831274765       17.2299845263       13.8856824437
  C        45.4760978991       17.1210191771       13.1750368951
  C        45.2554917762       16.1234115949       12.2133122758
  C        44.0653975846       16.0962531506       11.4898525593
  C        43.0655264162       17.0632811360       11.7112668667
  C        43.2753947182       18.0288524566       12.7134949321
  C        44.4669129753       18.0627125640       13.4314807777
  C        41.8205567726       17.0907923323       10.9109053006
  C        41.8508161588       17.1180211845        9.4899882110
  C        43.0733153348       17.2240035981        8.7543477571
  C        46.1533632593       26.6371720624        8.7211886464
  C        46.1626450919       26.6561711851       11.5308240581
  C        14.0464672974       17.8323236365       13.7038605384
  C        15.3679434775       17.9075007500       13.0149365274
  C        15.6411169739       18.9209900352       12.0840270393
  C        16.8706712312       18.9581802073       11.4301642332
  C        17.8551317621       17.9810649396       11.6810680460
  C        17.5889998989       16.9972524761       12.6508385969
  C        16.3615125672       16.9593793943       13.3081934638
  C        19.1224822585       17.9539971977       10.9121001214
  C        19.0978804854       17.9242996153        9.4906471610
  C        17.8780118934       17.8146100765        8.7500737320
  C        28.8063558819       14.0916594300        2.3939091973
  C        28.1891727439       12.9201510476        3.0821173575
  C        28.9061390176       12.1858049225        4.0380938843
  C        28.3049920726       11.1115790776        4.6887908212
  C        26.9717875427       10.7490548430        4.4087462728
  C        26.2764457651       11.4644970953        3.4176261137
  C        26.8760805751       12.5383745427        2.7644121880
  C        26.3011421456        9.6702175039        5.1694100827
  C        26.2859677224        9.6982171301        6.5902934247
  C        26.7847441223       10.8137351369        7.3351655287
  C        32.1557864521       21.2676263024        2.1541643387
  C        32.7386533582       22.4358506691        2.8769865263
  C        32.0041200966       23.0798111886        3.8844990574
  C        32.5753819788       24.1203396226        4.6115069395
  C        33.8951249721       24.5397554865        4.3538379555
  C        34.6099103780       23.9120169086        3.3163737402
  C        34.0415083163       22.8690104380        2.5895410653
  C        34.5321134918       25.6094472910        5.1532189136
  C        34.5433201447       25.5703053126        6.5743611850
  C        34.0472572908       24.4488298466        7.3113963385
  C        25.6791848232        8.6192235494        7.3096672129
  C        25.6673701132        8.6175426074        4.4965555001
  C        32.1053556772       21.2314043156       13.8813310258
  C        32.6982489349       22.3809392446       13.1370391158
  C        31.9683580122       23.0357080037       12.1329181180
  C        32.5516586393       24.0632122387       11.3955174171
  C        33.8781130351       24.4663664449       11.6450187339
  C        34.5907696927       23.8249726875       12.6763037840
  C        34.0126102455       22.7913494148       13.4083612367
  C        34.5190776668       25.5471878182       10.8620650706
  C        34.5341290744       25.5396705364        9.4403640391
  C        34.0412013977       24.4347774351        8.6776953254
  C        40.6162629143       17.1278522285        8.7614465467
  C        40.5867266341       17.1134665146       11.5708694301
  C        28.7204611771       14.0988754332       13.7793730448
  C        28.1147129356       12.9477617967       13.0467318492
  C        28.8518804690       12.2433392134       12.0824650908
  C        28.2724753307       11.1797967748       11.3945521344
  C        26.9402760210       10.7942491865       11.6457579845
  C        26.2209263064       11.4853066602       12.6386627790
  C        26.7987069851       12.5487489559       13.3290562096
  C        26.2996009399        9.7000487030       10.8775763402
  C        26.2876822774        9.7129486503        9.4559756310
  C        26.7838440481       10.8217470483        8.7007898072
  C        18.1352984333        3.1809658536        2.3223048971
  C        17.4060292435        4.2782189982        3.0208890562
  C        16.3902489664        3.9999155159        3.9483606827
  C        15.7425723167        5.0399362335        4.6118422159
  C        16.0945914051        6.3836452575        4.3722124297
  C        17.0840131970        6.6531213109        3.4084677218
  C        17.7330347019        5.6157387356        2.7434174552
  C        15.4703333311        7.4913699143        5.1352670510
  C        15.4854658834        7.4905838293        6.5569807613
  C        16.1868352971        6.4968513760        7.3101702695
  C        42.9459141647       31.8595177829        2.0780358353
  C        43.6463176200       30.7718600948        2.8220136710
  C        44.5918644744       31.0931706890        3.8080667337
  C        45.1975608594       30.0876160283        4.5557345103
  C        44.8711185801       28.7345605989        4.3408580647
  C        43.9452832562       28.4202354308        3.3276573282
  C        43.3364507387       29.4253853405        2.5796385179
  C        45.4887119201       27.6552487875        5.1440297902
  C        45.4927782712       27.6808020381        6.5657222814
  C        44.8055292503       28.6887448910        7.3123370472
  C        14.8565975401        8.5631253595        7.2693535493
  C        14.8753111171        8.5632939170        4.4566798158
  C        42.9464346118       31.9615611848       13.8039363354
  C        43.6916611261       30.8854322149       13.0903806609
  C        44.6561409186       31.1913365165       12.1179735237
  C        45.2776929929       30.1717552001       11.4002605064
  C        44.9540499231       28.8214296600       11.6380121891
  C        44.0206859142       28.5237665055       12.6488982642
  C        43.3923933976       29.5405303379       13.3610609313
  C        45.5631218564       27.7240382183       10.8527708837
  C        45.5332821087       27.7172701459        9.4314740790
  C        44.8267858415       28.7073802574        8.6785231388
  C        35.1368556774       26.6342056663        8.7365311405
  C        35.1272756167       26.6060250421       11.5463851264
  C        18.1484936386        3.2470504540       13.7014630359
  C        17.4298707454        4.3438642628       12.9922526593
  C        16.4146528299        4.0525771690       12.0686904136
  C        15.7663242806        5.0832148678       11.3933367346
  C        16.1209952526        6.4284526766       11.6160551778
  C        17.1123520238        6.7118482337       12.5733357280
  C        17.7600252491        5.6829360703       13.2530888750
  C        15.4905464329        7.5241534685       10.8435993011
  C        15.4963828667        7.5074521509        9.4224685975
  C        16.1930080697        6.5056513007        8.6757741513
  H        10.6723575088       12.4653717586       11.9000204437
  H        11.6946888695       10.5505552391       10.6581279524
  H        15.3923520124       11.1697843638       12.7660956685
  H        14.3519179369       13.0725963906       14.0111790248
  H        13.3766134237       11.6314275547        9.1962552437
  H        50.3230105765       22.7482619409       11.9814767148
  H        49.3199476610       24.6227637906       10.6755539063
  H        45.6428276259       24.1619130454       12.8592089711
  H        46.6637210999       22.2908881913       14.1674413377
  H        47.6304226173       23.5761009023        9.2411140153
  H        14.8723234907        8.5885357732       12.6034853569
  H        50.2871534657       22.7024191720        4.0656189167
  H        49.2692909083       24.5753055895        5.3656408093
  H        45.6109299374       24.1098033207        3.1507119812
  H        46.6530447335       22.2544768420        1.8363395361
  H        47.6083090566       23.5520138463        6.8019983945
  H        40.6705772919       17.1539082733        3.4307093711
  H        48.6872494543       14.0952091585       15.7949457695
  H        10.6813702180       12.4661484753        4.0978246736
  H        11.6898366668       10.5242520017        5.3015297126
  H        15.3944765397       11.1603824488        3.2119023321
  H        14.3658878610       13.0887534593        1.9967273322
  H        13.3763945949       11.6224499130        6.7582217874
  H        47.9302997941       14.2188660848        1.7159773780
  H        47.7802330525       14.3749488876       14.4903994592
  H        49.0853398535       18.5531780655        2.8727894637
  H        10.4164715726       14.1343213786        0.0037605951
  H        24.4843624256        3.0332511829       11.9113249178
  H        25.6210949797        4.8950891793       10.6855334268
  H        23.2408219518        7.7564876639       12.8410097127
  H        22.1226524662        5.8849888935       14.0683795430
  H        23.8065743089        5.7938108374        9.2603385579
  H        36.3746105531       32.1872484041       11.9659348829
  H        35.2522364808       30.3592536722       10.6873840864
  H        37.5193731544       27.4406798378       12.8881791434
  H        38.6215968488       29.2812703732       14.1757418149
  H        37.0314405230       29.4512584956        9.2739124356
  H        25.7273663236        8.6198209292       12.6442662499
  H        36.4654981287       32.2541642199        4.1213411605
  H        35.3447601872       30.4442397995        5.4206381364
  H        37.4988262651       27.4928707337        3.1497463326
  H        38.5961639526       29.3149117772        1.8391675537
  H        37.0418997483       29.4765482556        6.8355174805
  H        46.1095834239       26.5877057792        3.3907096185
  H        44.6681204141       35.1161427433       15.8088607058
  H        24.4352852945        3.0421652494        4.0916096912
  H        25.5635773771        4.8839254474        5.3427170450
  H        23.1576038900        7.7683597387        3.2479281500
  H        22.0412057044        5.9146062993        1.9966552920
  H        23.7847144337        5.7937662658        6.8218663620
  H        44.9534097047       34.3900341669        1.7000663231
  H        44.9012829190       34.2065985338       14.4855911138
  H        40.6657868264       33.2089757925        2.8581832203
  H        23.1503759099        1.9578196117        0.0102058281
  H        25.8374908995       19.6280269743       11.8811438927
  H        23.6658892881       19.6755283175       10.6525748970
  H        22.3423887337       16.2390402211       12.8752510995
  H        24.5165806674       16.2104498833       14.1044962174
  H        23.7241526051       17.6425436502        9.2443422605
  H        35.1249530484       15.4662723786       11.9761168875
  H        37.2462647377       15.4221741680       10.6568536836
  H        38.6866294184       18.8083745018       12.8832875225
  H        36.5576280093       18.8398561944       14.1975178293
  H        37.2236173213       17.4130560249        9.2314365367
  H        20.3615026163       17.9862855111       12.6667939661
  H        35.2261170949       15.4535990971        4.0478528649
  H        37.3636182156       15.4084751744        5.3516171359
  H        38.7311947013       18.8717295895        3.2008101551
  H        36.5931003980       18.8950843061        1.8971156016
  H        37.2492225268       17.4282347556        6.7875947569
  H        35.1028466755       26.7152596907        3.4066145042
  H        28.5119273472       21.0803911457       15.9799366336
  H        25.7841006025       19.5760915121        4.2295217171
  H        23.5886375154       19.6469102868        5.4166252466
  H        22.2893113063       16.1891581776        3.2124396112
  H        24.4811189849       16.1496394947        2.0069642883
  H        23.7025009120       17.6197748854        6.8059144579
  H        28.9635996533       21.7229708903        1.7969083471
  H        29.1515294717       21.7504606366       14.6215750638
  H        32.1132604959       18.5475425148        2.9941480577
  H        27.3989183470       19.0692940796        0.0898554055
  H        14.8510817564       19.6432640565        4.1516285752
  H        17.0129187885       19.6849346406        5.3949728789
  H        18.3031857995       16.1836596713        3.2564781145
  H        16.1373966589       16.1573302886        2.0126368242
  H        16.9227102707       17.6889090675        6.8572508124
  H        46.0953201959       15.4577359314        4.0864466582
  H        43.9744199854       15.4200330044        5.4034773259
  H        42.5739922696       18.8543406635        3.2237330666
  H        44.6947284275       18.8661567371        1.8967421458
  H        44.0317251169       17.3609980597        6.8627916120
  H        20.2924339760       17.9160366296        3.4295391895
  H        46.0330063615       15.3845705543       12.0327830872
  H        43.8988506587       15.3231173666       10.7428837780
  H        42.5088413861       18.7800899641       12.8919380975
  H        44.6502665901       18.8285492080       14.1811435214
  H        44.0058394065       17.3223353938        9.3024493698
  H        46.1996483299       26.6828344101       12.6182618110
  H        52.7415141665       21.0628489001        0.1998623445
  H        14.8800189902       19.6734040137       11.8894315149
  H        17.0813153910       19.7469719059       10.7111731216
  H        18.3405358550       16.2368045741       12.8528664281
  H        16.1411411342       16.1865039190       14.0404977918
  H        16.9443859073       17.7084179240        9.2942521843
  H        52.3236174337       21.6736857857       14.2887640319
  H        52.0140351169       21.7026635603        1.5009237038
  H        49.0678528169       18.6076383077       13.1986920080
  H        13.2481031808       19.0158743117       15.9725416971
  H        29.9318934690       12.4737301549        4.2568424857
  H        28.8624194979       10.5398831106        5.4276199935
  H        25.2461946811       11.1948144466        3.1944864558
  H        26.3371655175       13.1124044839        2.0146180258
  H        27.1423808396       11.6840251950        6.7932807121
  H        30.9924676843       22.7405866257        4.0964868711
  H        32.0005532632       24.6207182093        5.3877145364
  H        35.6316628880       24.2262062469        3.1134369429
  H        34.5982772351       22.3573858950        1.8079344079
  H        33.6926692165       23.5806638323        6.7635768812
  H        25.6987021795        8.5968063053        3.4086240451
  H        30.9460141367       22.7218313245       11.9355076098
  H        31.9784518335       24.5716258964       10.6232777945
  H        35.6174918581       24.1258374970       12.8743206520
  H        34.5674094465       22.2736556347       14.1874316722
  H        33.6812483057       23.5559553742        9.2049104077
  H        40.5751618114       17.0678932738       12.6582387834
  H        32.5138164358       14.1520524852        0.2659040472
  H        29.8821597627       12.5364483228       11.8932020035
  H        28.8516198023       10.6288868791       10.6566013370
  H        25.1901712710       11.2002267436       12.8392437003
  H        26.2405325748       13.0978758580       14.0837218730
  H        27.1398335213       11.6983818104        9.2338485099
  H        33.2893942774       14.1904399275       14.4226385630
  H        33.4089043210       14.4211779924        1.6054449880
  H        32.1224451614       18.5818736028       13.1922454679
  H        30.2215800589       14.1933010284        0.0683049476
  H        16.1180685702        2.9634324398        4.1347138078
  H        14.9530380816        4.8205847787        5.3274196816
  H        17.3665051576        7.6859848963        3.2153674635
  H        18.5150473676        5.8183726462        2.0155411259
  H        16.7533016907        5.7394322151        6.7766890709
  H        44.8281450412       32.1402542871        3.9822422215
  H        45.9374289043       30.3413448670        5.3116856852
  H        43.6825512025       27.3781734006        3.1575630422
  H        42.5997613868       29.1900765163        1.8150357316
  H        44.2300966238       29.4364398201        6.7740118001
  H        14.8517174007        8.5466616628        3.3684541474
  H        44.8995795451       32.2340287861       11.9264564207
  H        46.0245187435       30.4129886843       10.6469453946
  H        43.7638634229       27.4840250422       12.8405829259
  H        42.6460001250       29.3177362926       14.1196143995
  H        44.2681703005       29.4701848743        9.2131129627
  H        35.0843235946       26.6186481760       12.6338073138
  H        36.6048624753       35.1341382656        0.1856636044
  H        16.1435427983        3.0130049010       11.8989741750
  H        14.9739676787        4.8563697093       10.6832871593
  H        17.3958336658        7.7473201802       12.7502464373
  H        18.5428639193        5.8933949165       13.9778875889
  H        16.7643241166        5.7553270627        9.2142133071
  H        36.2780202971       34.4830537839       14.2679461950
  H        36.3798944980       34.2096972034        1.5049525875
  H        40.5802159332       33.2025303150       13.1486512293
  H        17.4704499461        1.9474296963       15.9689646364
  H        28.8237308589       18.8947934658        4.4119701167
  H        29.8124149136       19.8945556148       11.6189477188
  H        32.2509650433       16.3532098054       10.6878724702
  H        31.0787129274       15.5004320919        4.4333112665
  H        28.1651808685       17.4716513014        6.7511954087
  H        29.4582333205       15.1405492153        6.5401451095
  H        31.5427542862       19.9764582199        9.4724487974
  H        33.3765834309       17.2295762774        9.9548296079
  H        29.0792455709       16.5693051551        9.1574722634
  H        18.8532208002        0.8690193683        4.3404186322
  H        40.5278144869       35.2292191258       11.9469399333
  H        42.3240592199       34.4188103686       11.5855635252
  H        22.0877888176        0.6920519914        4.3567532003
  H        11.5968459735       18.7130333754        4.3877847770
  H        52.2652384190       18.4315414501       11.6721102477
  H        49.2552409763       16.4771095121       11.5792932571
  H        10.1505210958       15.7983420057        4.2977297532
  H        50.8506146478       17.6925783121       11.9490132850
  H        10.0463784559       17.3946895425        4.0569579749
  H        20.2142957732        0.0022164337        4.0471917535
  H        39.1835697139       36.1244835447       11.6811909688
  H        33.2529900997       14.3858876324        7.3464810960
 Ni        30.6534049730       17.9349478029       10.7424994974
 Ni        31.3660718571       16.3542280518        7.7522851059
 Ni        29.9752539165       18.8645463992        7.8286061167
 Ni        30.3545022332       17.4248190897        5.4095565510
  O        10.6499931893       14.3651888969       13.4807651794
  O        12.6132056698       14.6575055344       14.5788199692
  O        49.1479553073       16.8458465887       15.9844511314
  O        50.3503384924       20.9356856337       13.6428128266
  O        48.3486021965       20.5933036724       14.6607227651
  O        11.0518827327       17.0537783537       14.4956868500
  O        50.3210064092       20.8816017119        2.4119792068
  O        48.3467476280       20.5867272224        1.3321849663
  O        49.5439793823       18.2483967861        2.0732121163
  O        12.3593085868       18.6247295921        0.0048023844
  O        48.6932064424       14.1486667315       14.7461622326
  O         8.2099481955       14.2103850927        1.3276266360
  O        10.7354307656       14.5067983322        2.6693934494
  O        12.5718386797       14.5828180480        1.3335909091
  O        22.8449272180        2.0438802634       13.4820605391
  O        21.6053257220        3.5924155514       14.5847471755
  O        42.0583059744       34.1373804343       15.9738582252
  O        37.9819503242       33.1391729360       13.5679017092
  O        39.2186610735       31.5769684496       14.6622946981
  O        20.3084474737        1.0396884595       14.4969064591
  O        38.0251108976       33.1871220200        2.4198866460
  O        39.2188550353       31.5838602885        1.3321590182
  O        40.6523231209       33.7694170592        2.0653918134
  O        18.2552003398        1.3763500392        0.0018848098
  O        44.6222269407       35.1005317451       14.7536266653
  O        24.2054111009        0.0000244918        1.3259236467
  O        22.7529598041        2.0577875334        2.5888418579
  O        21.6241098082        3.5957542834        1.3471089936
  O        27.4991734740       18.7522556232       13.4943492051
  O        26.7684067812       16.9317565556       14.6515039164
  O        30.6629689825       19.4062129075        0.0778394205
  O        33.5461261677       16.3317809681       13.6460837425
  O        34.2772241591       18.1822628829       14.7383617537
  O        29.5744406699       17.0715079080       14.5703896818
  O        33.6245479447       16.3319469213        2.4144742169
  O        34.3032107513       18.2535327466        1.4109184695
  O        31.6561254590       18.3170622421        2.1679743084
  O        30.3239987465       15.1590366457        0.0825249381
  O        28.5545274206       21.0335490957       14.9022437461
  O        28.5108829934       20.9513955180        1.4167763409
  O        27.4951986031       18.6086015806        2.7392680468
  O        26.6947114998       16.9301393127        1.4196405891
  O        13.1493607994       18.6927209354        2.5926484353
  O        13.9195211960       16.9162585550        1.4102590369
  O        50.5965623943       19.3502109893        0.0254109443
  O        47.6836552108       16.3269590371        2.4224104987
  O        46.9525352081       18.1761369580        1.3290172211
  O        11.0701269466       17.0154441407        1.4946669257
  O        47.6743692056       16.3357858013       13.6475873576
  O        46.9258354549       18.2359744606       14.6588961963
  O        49.5687839220       18.3176612432       13.9770483757
  O        10.3187969883       15.1001360974        0.0021940598
  O        52.6707909183       21.0278418907        1.2469155630
  O        12.1468657490       20.8912169097       14.6682024508
  O        13.1082464848       18.6135899780       13.3205646191
  O        13.9572623088       16.9871671985       14.6602828472
  O        29.9910219908       14.4380164928        2.7320042208
  O        28.0882159672       14.6549068741        1.4972548738
  O        32.1377820160       16.8615381289        0.0813986569
  O        30.9527420187       20.9501845612        2.4260233369
  O        32.9195801885       20.6541255992        1.3318111864
  O        29.5697908895       17.0767420958        1.5806540100
  O        30.8747613224       20.9519488538       13.6609416182
  O        32.8796525118       20.5847468856       14.6611065844
  O        31.6792981647       18.2563335564       13.9910423358
  O        28.2874219045       18.6769827572        0.0914153657
  O        32.4949762009       14.2130054885        1.3354147504
  O        32.3998059979       14.2192112562       14.8117562030
  O        29.8752123530       14.5084234843       13.4073034967
  O        28.0428816526       14.5861444704       14.7454455455
  O        17.8891514213        1.9665811662        2.6679123159
  O        18.9561855081        3.5271348143        1.4131452349
  O        39.1686623732       34.1389466395        0.0023096871
  O        43.2802890887       33.0589515545        2.3368117787
  O        42.0346038518       31.5064131312        1.2467629212
  O        20.3176752749        1.0367900906        1.4852918741
  O        43.2760563502       33.1825431013       13.5697701078
  O        42.0052897059       31.5840744821       14.5779109142
  O        40.5791372612       33.7750883950       13.9308571540
  O        22.3672910510        1.3845761576        0.0030106665
  O        36.6727098873       35.0999107431        1.2382877602
  O        16.4455223917        0.0644339138       14.6632361972
  O        17.9364559937        2.0434406145       13.3212394854
  O        18.9190052849        3.5931112079       14.6608160548
  O        29.8626801542       19.0410398800       12.0903567111
  O        29.7440554772       18.9831861697        4.0831994348
  O        31.2179328835       16.2742095054       11.9946492390
  O        31.3462904180       16.3394170363        4.0023761763
  O        32.4900618879       16.8515755848        9.8300031149
  O        29.9078957733       17.0677676352        9.0773632973
  O        30.3729242944       15.3864782680        6.3282045800
  O        31.4692323652       18.0200429764        6.8971097233
  O        30.6667603778       19.5697050043        9.5627472498
  O        28.7524974583       18.1674221331        6.4177664478
  O        39.4568031791       35.2439242938       11.9968440278
  O        19.1411482742        0.0045460666        3.9957206042
  O        41.9697268637       35.1727657245       12.0821029459
  O        21.6913855544       -0.0693297608        3.9010608978
  O        51.3653059665       18.6143426394       12.0002558833
  O        10.7511389805       18.7470798891        3.9099963175
  O        50.0795786155       16.4126924224       12.0866283082
  O         9.5245305457       16.4831389221        3.9962722023
 Zr         9.2980688701       16.0529033557       14.1774147724
 Zr        49.8375972628       16.0066796539        1.7512358651
 Zr        22.0731409408        0.0298983657       14.1839767581
 Zr        42.4607628953       35.1534147195        1.8060472300
 Zr        29.5989879331       19.1077205132       14.2917333035
 Zr        29.5794123728       19.1740486100        1.9105106852
 Zr        11.0392725548       19.0518658045        1.8329901489
 Zr        11.0451200982       19.1548229171       14.2455351542
 Zr        31.3510268042       16.1025094426        1.8955811238
 Zr        31.3936355220       16.0316037007       14.2781697619
 Zr        18.6008688486       -0.0012739178        1.7684205227
 Zr        18.5063172190       -0.0074671767       14.2086541960
 Zr        12.3037603931       16.3237633359       15.9852386447
 Zr        48.6180019193       18.8334928269        0.0148176641
 Zr        20.3147528937        2.4732632826       15.9853580931
 Zr        40.6434158275       32.6872189521       15.9734456870
 Zr        28.3482130588       16.3506332957        0.0917652240
 Zr        32.6195269960       18.8493524742        0.0740271353
  O        30.2909834488       20.5181158043        6.4144830775
  H        31.2645613700       20.4901297881        6.4070193673
  H        30.0626421494       20.0920075185        5.5386943324
  O        32.3609998455       14.4313606673        7.7294833059
  H        31.7217443527       14.2753950678        6.9813683652
  H        30.5615725190       15.5709252277       11.8230405777
