     575
 i =      240, E =     -4794.9390716770
  C        11.8587815121       14.0536287136       13.7364382120
  C        12.4563327995       12.8906684965       13.0180423344
  C        11.7044897432       12.1714237563       12.0767685421
  C        12.2808938980       11.1092209432       11.3844148853
  C        13.6216097734       10.7398115123       11.6118426499
  C        14.3549865885       11.4438037360       12.5848202239
  C        13.7820862862       12.5088071715       13.2762892555
  C        14.2611466066        9.6490910014       10.8385068678
  C        14.2565444452        9.6569913067        9.4168093070
  C        13.7434777260       10.7591813122        8.6629313944
  C        49.1269380860       21.2332132788       13.8745506802
  C        48.5501392660       22.4011904398       13.1474093141
  C        49.3002345639       23.0686644994       12.1665892782
  C        48.7332813448       24.1078198800       11.4334045799
  C        47.4026903639       24.5093021317       11.6619411341
  C        46.6716660726       23.8602799717       12.6752928159
  C        47.2341497643       22.8153747474       13.4046240930
  C        46.7723936692       25.5869961121       10.8646949888
  C        46.7613199613       25.5573968811        9.4429332164
  C        47.2612843052       24.4423081280        8.6994538223
  C        14.8604888637        8.5706313924        8.7035829767
  C        14.8917308402        8.5970683867       11.5151915768
  C        49.1132706713       21.2034381316        2.1504891932
  C        48.5278122402       22.3647908139        2.8777587759
  C        49.2671069317       23.0256833870        3.8704823075
  C        48.6907315395       24.0602212343        4.6019569642
  C        47.3602541617       24.4568027177        4.3638301429
  C        46.6397372962       23.8116765790        3.3405318687
  C        47.2133470389       22.7757937336        2.6087522191
  C        46.7217562795       25.5317766070        5.1548244351
  C        46.7334834955       25.5281710445        6.5765268411
  C        47.2489829897       24.4289831533        7.3329034951
  C        40.6365182588       17.1628700909        7.3262485229
  C        40.6575853850       17.1845273723        4.5174762144
  C        11.8830709280       14.0866855359        2.2906469219
  C        12.4725694952       12.9109855865        2.9951000742
  C        11.7148802907       12.1772988454        3.9206552248
  C        12.2815404180       11.0948435444        4.5890428441
  C        13.6205777242       10.7216700197        4.3576915976
  C        14.3587897729       11.4378015022        3.3975215049
  C        13.7932980384       12.5189841723        2.7248774735
  C        14.2541487049        9.6247995488        5.1280083442
  C        14.2528911086        9.6447212371        6.5498451774
  C        13.7429861372       10.7536761310        7.2968862792
  C        22.5124080864        3.2445358170       13.7475261651
  C        23.2289256197        4.3492194906       13.0470121106
  C        24.2262035695        4.0665444626       12.1018534704
  C        24.8562503657        5.1040547213       11.4192788017
  C        24.5053088081        6.4470080983       11.6617892744
  C        23.5357532610        6.7214211243       12.6435346464
  C        22.9008816776        5.6854440835       13.3243539118
  C        25.1165340823        7.5506422756       10.8852467030
  C        25.0898877676        7.5415671740        9.4635073953
  C        24.3804143845        6.5467465794        8.7182904878
  C        38.3033648762       31.9293184001       13.8436553069
  C        37.5760294450       30.8387639753       13.1338068362
  C        36.6193918955       31.1402936305       12.1525433654
  C        36.0054658190       30.1181621374       11.4340513031
  C        36.3331387837       28.7696690300       11.6758968264
  C        37.2598195371       28.4756566600       12.6937484478
  C        37.8782471268       29.4964565602       13.4106346762
  C        35.7337266292       27.6764523426       10.8786989899
  C        35.7674863800       27.6906792014        9.4574872224
  C        36.4753901140       28.6918903031        8.7204464967
  C        25.7222843478        8.6051231571        8.7421673081
  C        25.7178986047        8.6242490261       11.5544954337
  C        38.3291345173       31.9621593188        2.1612233429
  C        37.6090377972       30.8882234904        2.9028604935
  C        36.6833052740       31.1952345054        3.9117024004
  C        36.0758291550       30.1752699975        4.6412920454
  C        36.3797817534       28.8232603653        4.3850470381
  C        37.2826517610       28.5262928463        3.3458629365
  C        37.8925230978       29.5426733621        2.6178181686
  C        35.7744087536       27.7228443066        5.1689561045
  C        35.7882459785       27.7145795130        6.5907952672
  C        36.4849762591       28.7035732415        7.3539277150
  C        46.1354568907       26.6208052970        7.2866504194
  C        46.0877528839       26.5800923306        4.4787587302
  C        22.4609209478        3.2550587966        2.2622805021
  C        23.1567759570        4.3626752431        2.9853094336
  C        24.1600947401        4.0736966425        3.9237983680
  C        24.7909161857        5.1019539707        4.6197353151
  C        24.4385345175        6.4483241500        4.3989037875
  C        23.4578808484        6.7307944538        3.4293890435
  C        22.8221794700        5.7025642586        2.7342292160
  C        25.0748790977        7.5438085282        5.1719157712
  C        25.0693389475        7.5377502902        6.5945468658
  C        24.3687625012        6.5462293799        7.3516722886
  C        26.6223237187       17.8606283922       13.7782634373
  C        25.3131026160       17.9067888406       13.0543355244
  C        25.0599223138       18.8946177160       12.0899170294
  C        23.8467459064       18.9152526107       11.4039490277
  C        22.8507076683       17.9506524285       11.6594760020
  C        23.1006904531       16.9856487563       12.6534235330
  C        24.3154960507       16.9601835122       13.3373806116
  C        21.5777178476       17.9343335367       10.8947916236
  C        21.5767700284       17.9071044895        9.4722166857
  C        22.7817971172       17.7803605685        8.7112532231
  C        34.4400555128       17.1961984786       13.9170211775
  C        35.7312941967       17.1561805599       13.1667707257
  C        35.9395575022       16.1930700165       12.1672465944
  C        37.1188014220       16.1900643160       11.4272706908
  C        38.1230363082       17.1471692903       11.6706823234
  C        37.9173287629       18.0911754501       12.6941745692
  C        36.7340336067       18.1010847958       13.4290756570
  C        39.3788155217       17.1600016756       10.8876176731
  C        39.3766600028       17.1810740021        9.4665562234
  C        38.1709853054       17.3092849702        8.7073767064
  C        20.3300523729       17.9238196042        8.7637299637
  C        20.3525925659       17.9401414532       11.5767604494
  C        34.4775964118       17.2479855317        2.1835743559
  C        35.7818334873       17.1786745020        2.9070881487
  C        35.9971803038       16.1997243070        3.8881707682
  C        37.1825102415       16.1877319104        4.6179164120
  C        38.1802288963       17.1536807944        4.3842475596
  C        37.9715130651       18.1075541462        3.3711430306
  C        36.7835664945       18.1248976622        2.6451295151
  C        39.4261271976       17.1761816691        5.1805440023
  C        39.4009008825       17.1898641572        6.6011545343
  C        38.1822818826       17.3112459148        7.3408558765
  C        35.1577245487       26.6355131617        7.2946221036
  C        35.1820022352       26.6535803666        4.4855595512
  C        26.5688800332       17.8243361503        2.3296059926
  C        25.2526911020       17.8702218363        3.0350179010
  C        24.9886986574       18.8735286687        3.9794018517
  C        23.7714746051       18.8969157397        4.6545784911
  C        22.7889648131       17.9172636491        4.4079505822
  C        23.0467934453       16.9395467660        3.4301360525
  C        24.2650616880       16.9138677499        2.7539002095
  C        21.5260109503       17.8969748372        5.1817731092
  C        21.5503282525       17.8865751908        6.6032656192
  C        22.7689466975       17.7706157007        7.3449854041
  C        14.0463267510       17.8283581610        2.2943752196
  C        15.3498761527       17.8838057094        3.0204931812
  C        15.6059682095       18.8845117831        3.9709036994
  C        16.8144708340       18.9032514497        4.6645374402
  C        17.8010844476       17.9241942672        4.4298773901
  C        17.5497546741       16.9479571849        3.4472567636
  C        16.3407112676       16.9244629079        2.7552886831
  C        19.0700093066       17.9053966777        5.1986716562
  C        19.0690845731       17.9016077297        6.6210959109
  C        17.8623779944       17.8027622125        7.3827825248
  C        46.8073046792       17.2205037725        2.1646522927
  C        45.5199450045       17.1656122348        2.9132498686
  C        45.3136962708       16.1943522274        3.9047808699
  C        44.1339107527       16.1856229893        4.6437144818
  C        43.1323406226       17.1481214362        4.4113668090
  C        43.3360292198       18.0990936649        3.3936108627
  C        44.5164434266       18.1119914152        2.6561874434
  C        41.8799485131       17.1679903398        5.1987749564
  C        41.8843292276       17.1708962803        6.6201566738
  C        43.0925077460       17.2624394584        7.3805136378
  C        20.3161416323       17.9123973730        7.3288680123
  C        20.2937553443       17.8863977986        4.5157781977
  C        46.7860057688       17.2315156817       13.8850394252
  C        45.4818726453       17.1291239328       13.1716696065
  C        45.2605721756       16.1362611465       12.2055283374
  C        44.0720892483       16.1171360970       11.4799462490
  C        43.0764950569       17.0877065947       11.7042100343
  C        43.2872825496       18.0487532957       12.7102692490
  C        44.4769125051       18.0745822817       13.4304803577
  C        41.8320277171       17.1208681827       10.9058561065
  C        41.8599924715       17.1452167422        9.4853779731
  C        43.0810172027       17.2476082079        8.7469153193
  C        46.1532559489       26.6372561865        8.7211947781
  C        46.1624455463       26.6560972763       11.5308392209
  C        14.0459037186       17.8321095673       13.7039535925
  C        15.3671100021       17.9071275408       13.0144645551
  C        15.6394192413       18.9204121969       12.0831819052
  C        16.8684781517       18.9575362501       11.4285203858
  C        17.8530681267       17.9806456682       11.6794375618
  C        17.5879181018       16.9970413615       12.6496004604
  C        16.3607979535       16.9591979536       13.3075756569
  C        19.1199835462       17.9542635305       10.9100915713
  C        19.0951091158       17.9253594889        9.4887602040
  C        17.8751222142       17.8134955461        8.7487471540
  C        28.8121759666       14.0929161673        2.3965107979
  C        28.2036438790       12.9132803835        3.0812796916
  C        28.9389038124       12.1602022798        4.0079679780
  C        28.3468416516       11.0790676793        4.6563755428
  C        27.0050786022       10.7300920379        4.4033160452
  C        26.2903619684       11.4645604801        3.4402797686
  C        26.8814381862       12.5441352456        2.7885518688
  C        26.3405013665        9.6483033809        5.1658381591
  C        26.3367848976        9.6707350695        6.5866152555
  C        26.8641214293       10.7736798504        7.3313213634
  C        32.1773703723       21.2391731090        2.1480825594
  C        32.7755754563       22.4049026070        2.8678793134
  C        32.0275786583       23.0870248250        3.8396161253
  C        32.6007444711       24.1249699129        4.5684728938
  C        33.9371727275       24.5088239167        4.3451132761
  C        34.6677711274       23.8454052749        3.3416271266
  C        34.0969177642       22.8017426790        2.6152994219
  C        34.5683183050       25.5832865569        5.1450516189
  C        34.5632538472       25.5535665055        6.5664751535
  C        34.0528232748       24.4390516516        7.3043178117
  C        25.7167969378        8.5999270248        7.3074866585
  C        25.6938373991        8.6027108741        4.4943378081
  C        32.1027542855       21.2254685196       13.8779467570
  C        32.6976571394       22.3739229716       13.1294618359
  C        31.9642116193       23.0373639678       12.1338322328
  C        32.5475102563       24.0655067123       11.3964963109
  C        33.8778426478       24.4609551055       11.6378783549
  C        34.5944146141       23.8106291208       12.6605719765
  C        34.0158934701       22.7766142708       13.3924011292
  C        34.5197079209       25.5422427704       10.8549318751
  C        34.5375627590       25.5328447896        9.4332572069
  C        34.0397339130       24.4295905146        8.6708236819
  C        40.6239425675       17.1539466835        8.7600495835
  C        40.6005814926       17.1465246969       11.5694854341
  C        28.7477774660       14.0710666587       13.8132419948
  C        28.1371053393       12.9266904909       13.0657147187
  C        28.8862304286       12.2179348664       12.1133381865
  C        28.3130819884       11.1565110630       11.4152767258
  C        26.9739169419       10.7783556442       11.6446305114
  C        26.2412560341       11.4780027311       12.6207986394
  C        26.8139019682       12.5387969914       13.3213924137
  C        26.3380337993        9.6812870156       10.8755618425
  C        26.3358721528        9.6870772902        9.4543039423
  C        26.8596370062       10.7813062953        8.6966307372
  C        18.1353488495        3.1810004045        2.3222521129
  C        17.4059774535        4.2782130059        3.0207013662
  C        16.3907236953        3.9998466680        3.9487499000
  C        15.7430237356        5.0398243256        4.6122572457
  C        16.0945132637        6.3836053584        4.3721774323
  C        17.0832888769        6.6531157540        3.4077610325
  C        17.7323480446        5.6157830804        2.7426851203
  C        15.4703523607        7.4913382201        5.1352612966
  C        15.4856217538        7.4905721656        6.5569759896
  C        16.1870724967        6.4969053616        7.3101828665
  C        42.9459280550       31.8594276776        2.0780300746
  C        43.6462445365       30.7718428125        2.8219652354
  C        44.5918032050       31.0931364654        3.8080371988
  C        45.1974445694       30.0875707752        4.5557050230
  C        44.8709788201       28.7345068016        4.3408373713
  C        43.9451667968       28.4202004949        3.3275944122
  C        43.3363955222       29.4253523612        2.5795484676
  C        45.4885578573       27.6552247715        5.1440323383
  C        45.4927077814       27.6808915076        6.5657170249
  C        44.8056183722       28.6889324624        7.3123466162
  C        14.8567724281        8.5631195834        7.2693605563
  C        14.8751862510        8.5632067873        4.4566841413
  C        42.9465319569       31.9614880980       13.8038901531
  C        43.6917837809       30.8854695344       13.0904878255
  C        44.6562295570       31.1913782856       12.1180172302
  C        45.2777346444       30.1717825153       11.4003196398
  C        44.9540817817       28.8214378862       11.6380512060
  C        44.0207658685       28.5237987292       12.6490039137
  C        43.3924897008       29.5405513257       13.3611662946
  C        45.5630882301       27.7240629421       10.8527805236
  C        45.5332836242       27.7174040106        9.4314884489
  C        44.8269143064       28.7076003327        8.6785318673
  C        35.1459804657       26.6241099274        8.7292693686
  C        35.1285982372       26.6011191014       11.5389982924
  C        18.1485042461        3.2469905035       13.7014863371
  C        17.4297716847        4.3437820644       12.9924285477
  C        16.4149628829        4.0524705724       12.0684096645
  C        15.7666489539        5.0830777052       11.3930105879
  C        16.1208825834        6.4283743960       11.6161467934
  C        17.1116847403        6.7117959487       12.5740131506
  C        17.7593505357        5.6829044518       13.2537949791
  C        15.4905226251        7.5240758669       10.8436425044
  C        15.4965147077        7.5074381950        9.4225076805
  C        16.1932346375        6.5057179586        8.6757893378
  H        10.6722213164       12.4652839627       11.9000976799
  H        11.6945034209       10.5504598269       10.6581709989
  H        15.3921943617       11.1696170745       12.7661498715
  H        14.3516929196       13.0724776450       14.0112759538
  H        13.3764149131       11.6312550301        9.1962980086
  H        50.3229909405       22.7487150638       11.9819413769
  H        49.3198252935       24.6231976468       10.6759454109
  H        45.6421160670       24.1609220161       12.8583533697
  H        46.6631237234       22.2899750167       14.1665971603
  H        47.6299392953       23.5759904339        9.2411572100
  H        14.8719281687        8.5883713488       12.6034962887
  H        50.2872361427       22.7029915808        4.0652457060
  H        49.2691973225       24.5758526639        5.3652886586
  H        45.6102671332       24.1087622519        3.1515843123
  H        46.6525144590       22.2534456261        1.8373237159
  H        47.6078413946       23.5519123554        6.8019763401
  H        40.6650102337       17.1478915071        3.4298365896
  H        48.6870721927       14.0950498081       15.7949228235
  H        10.6812251434       12.4659867950        4.0976234814
  H        11.6896245293       10.5240452812        5.3013155377
  H        15.3944567865       11.1604568446        3.2120979929
  H        14.3658173352       13.0889012126        1.9969108991
  H        13.3761908436       11.6222758573        6.7581967748
  H        47.9302173096       14.2185068949        1.7159573352
  H        47.7801054958       14.3738436871       14.4900858585
  H        49.0845172342       18.5527374756        2.8726947264
  H        10.4160940410       14.1342657859        0.0038129524
  H        24.4854091414        3.0272625508       11.9123706677
  H        25.6295608638        4.8838323417       10.6865100296
  H        23.2566665763        7.7550345498       12.8374593514
  H        22.1303215151        5.8884171495       14.0641295513
  H        23.8141181398        5.7943603239        9.2594480263
  H        36.3820492248       32.1829868530       11.9550528762
  H        35.2633300405       30.3550150373       10.6748450225
  H        37.5200324941       27.4370903934       12.8874029217
  H        38.6196975664       29.2777113208       14.1753762356
  H        37.0419506073       29.4403947358        9.2667058464
  H        25.7483663288        8.6113323245       12.6425082973
  H        36.4609981555       32.2390656182        4.1215042173
  H        35.3526238882       30.4183830649        5.4165841036
  H        37.5286640560       27.4864102787        3.1413035763
  H        38.6125289060       29.3186987504        1.8345437869
  H        37.0599430933       29.4606467548        6.8284680821
  H        46.1091834556       26.5874402179        3.3907231189
  H        44.6681685527       35.1160554037       15.8088520951
  H        24.4361914895        3.0347468673        4.0891072687
  H        25.5726364123        4.8712817103        5.3403490694
  H        23.1745651290        7.7660191532        3.2503738290
  H        22.0492662127        5.9171700078        1.9998140157
  H        23.7927617801        5.7939580309        6.8205523552
  H        44.9535885802       34.3901233982        1.7000163402
  H        44.9016175462       34.2067932742       14.4854093444
  H        40.6658500774       33.2088357271        2.8580992737
  H        23.1507428840        1.9573400572        0.0101742036
  H        25.8282367751       19.6390546090       11.8932364141
  H        23.6553458983       19.6883047767       10.6626956249
  H        22.3434862051       16.2321342250       12.8606765137
  H        24.5193891779       16.2018320103       14.0898137368
  H        23.7223717214       17.6624595785        9.2414439496
  H        35.1623581042       15.4547609712       11.9838353399
  H        37.2811029376       15.4349425390       10.6611368291
  H        38.6853289514       18.8378782415       12.8854352529
  H        36.5571941419       18.8433039834       14.2041784462
  H        37.2324630249       17.4347623899        9.2395638522
  H        20.3596397476       17.9852720675       12.6644262932
  H        35.2158602665       15.4661896851        4.0733362494
  H        37.3504881117       15.4256818147        5.3758691526
  H        38.7367357650       18.8588339913        3.1869796166
  H        36.5981322279       18.8783286970        1.8831489706
  H        37.2524958739       17.4368402956        6.7935261048
  H        35.1515231344       26.6810458376        3.3979814187
  H        28.5040559152       21.0679570487       15.9668118274
  H        25.7504491656       19.6271617820        4.1661485333
  H        23.5662503429       19.6790726953        5.3823307844
  H        22.2958344361       16.1770875331        3.2333636438
  H        24.4812200228       16.1476685746        2.0131365681
  H        23.6996620970       17.6452294943        6.7997159287
  H        29.0175355388       21.7115585056        1.7566774921
  H        29.1796559018       21.7271404820       14.6300179251
  H        32.0976688843       18.5632510982        2.9881698385
  H        27.3715283610       19.0191138461        0.0812241872
  H        14.8475883415       19.6432616357        4.1505719509
  H        17.0095648403       19.6854884163        5.3949888867
  H        18.3013223079       16.1845311001        3.2568020965
  H        16.1351149220       16.1574744635        2.0123920629
  H        16.9197172923       17.6862035064        6.8560142673
  H        46.0947084924       15.4604133163        4.0890077911
  H        43.9725938337       15.4250705864        5.4044738065
  H        42.5697115199       18.8496271988        3.2113777839
  H        44.6919881149       18.8600518850        1.8867320358
  H        44.0350598343       17.3754593975        6.8524885656
  H        20.2873828330       17.9178868285        3.4276975780
  H        46.0356637148       15.3951034161       12.0242147721
  H        43.9026228338       15.3478404117       10.7297239443
  H        42.5227511474       18.8017162099       12.8899107089
  H        44.6626242163       18.8361696191       14.1837641155
  H        44.0147795477       17.3479960377        9.2925605563
  H        46.1993676992       26.6826224727       12.6182829584
  H        52.7413501240       21.0626870725        0.1998141498
  H        14.8779455845       19.6725283985       11.8889284380
  H        17.0786779462       19.7460125032       10.7090588409
  H        18.3398470062       16.2369663686       12.8515493688
  H        16.1407385548       16.1866481365       14.0403115122
  H        16.9420030481       17.7050718801        9.2933623100
  H        52.3229529437       21.6734887113       14.2890176296
  H        52.0135409106       21.7023207525        1.5007632757
  H        49.0678401785       18.6077745452       13.1989073698
  H        13.2479973301       19.0160274273       15.9723951310
  H        29.9717198563       12.4379164539        4.2060520532
  H        28.9192263101       10.4923939595        5.3717573769
  H        25.2532362468       11.2045367817        3.2385057336
  H        26.3293773868       13.1325930912        2.0596986804
  H        27.2537014087       11.6287705566        6.7862483921
  H        31.0002438688       22.7776804774        4.0170360373
  H        32.0157737536       24.6541423676        5.3176587662
  H        35.7020478240       24.1329950841        3.1639062147
  H        34.6654827486       22.2633659537        1.8604082083
  H        33.6934756171       23.5732253687        6.7556295454
  H        25.7177352874        8.5855572318        3.4061704169
  H        30.9380554823       22.7296502938       11.9462777925
  H        31.9714513496       24.5821017783       10.6317619889
  H        35.6241700971       24.1050862320       12.8525302713
  H        34.5732909726       22.2524154515       14.1652978832
  H        33.6703994133       23.5560336361        9.2003207331
  H        40.5914248461       17.1012346784       12.6568349533
  H        32.5064889984       14.1505980603        0.2633918192
  H        29.9230330791       12.5067236729       11.9517184836
  H        28.9036874764       10.5954826664       10.6937161182
  H        25.2054273492       11.1992222451       12.8036710179
  H        26.2468454541       13.0923314006       14.0663401482
  H        27.2410152404       11.6428935059        9.2369116032
  H        33.3111840501       14.2295388962       14.4650464971
  H        33.4091410719       14.4172910712        1.6029626079
  H        32.1430382599       18.5261668435       13.2015919674
  H        30.2190267323       14.1906102083        0.0831988232
  H        16.1188951710        2.9633408596        4.1354833087
  H        14.9538549662        4.8204177146        5.3282187293
  H        17.3652141422        7.6860301474        3.2141107145
  H        18.5138364786        5.8184717522        2.0142632875
  H        16.7535512317        5.7394820541        6.7767251333
  H        44.8281571939       32.1401966131        3.9822271637
  H        45.9373326287       30.3412583162        5.3116485586
  H        43.6824725517       27.3781354690        3.1574521527
  H        42.5997899322       29.1899836785        1.8148873155
  H        44.2302048283       29.4366666968        6.7740618994
  H        14.8513794313        8.5465286746        3.3684630832
  H        44.8997296449       32.2340502971       11.9264811099
  H        46.0245513031       30.4129751027       10.6469848120
  H        43.7639517244       27.4840597445       12.8407095190
  H        42.6461335100       29.3176991742       14.1197329222
  H        44.2683449150       29.4704451884        9.2131101014
  H        35.0841393542       26.6142099118       12.6263855807
  H        36.6049028992       35.1340406040        0.1857683766
  H        16.1441634821        3.0128752250       11.8983516255
  H        14.9746009200        4.8561839739       10.6826323729
  H        17.3946554100        7.7473243444       12.7514133385
  H        18.5417400173        5.8934240372       13.9790582223
  H        16.7645306772        5.7553613147        9.2142044592
  H        36.2779364094       34.4829476069       14.2679083380
  H        36.3800270806       34.2095735586        1.5050594901
  H        40.5803046272       33.2024271130       13.1484894816
  H        17.4707796607        1.9476450574       15.9689607024
  H        29.0154914273       19.2506291293        4.4994247155
  H        29.7986318405       19.7202670229       11.5663588291
  H        31.9340753649       15.7968680296       11.6024998900
  H        31.3259860264       15.5696535621        4.5591538694
  H        28.0834705837       17.9349942290        6.7221295506
  H        29.6504650179       15.1800672831        6.7039453700
  H        31.6850710025       20.0276264994        9.4948618257
  H        33.2082966880       16.9312510257        9.5848341367
  H        29.0047622718       16.6747563364        9.1778343799
  H        18.8525725389        0.8687413617        4.3402552365
  H        40.5278404611       35.2291161882       11.9469636294
  H        42.3237983793       34.4184729513       11.5857280213
  H        22.0876971675        0.6917604043        4.3568933449
  H        11.5968542759       18.7129177950        4.3876979629
  H        52.2650221147       18.4310954913       11.6721937417
  H        49.2545921487       16.4771770121       11.5797723294
  H        10.1497106359       15.7983411526        4.2982046557
  H        50.8501251142       17.6925462918       11.9490888496
  H        10.0459285986       17.3945594068        4.0570268469
  H        20.2137032954        0.0020457615        4.0472393535
  H        39.1834575594       36.1243718363       11.6813410202
  H        32.3263087677       18.4859556050        6.8272895690
 Ni        30.9404679052       17.7709547035       10.8250126021
 Ni        31.2836739018       16.3531393476        8.0766844147
 Ni        30.0105529121       18.8476950246        7.9969770717
 Ni        30.2682657409       17.4730198086        5.3288568575
  O        10.6499672589       14.3650742200       13.4806755128
  O        12.6131958581       14.6574592272       14.5787827260
  O        49.1481297757       16.8458392657       15.9845996298
  O        50.3503021096       20.9359084496       13.6428867976
  O        48.3485806750       20.5934072787       14.6607701148
  O        11.0517868485       17.0538267911       14.4955882418
  O        50.3210145317       20.8817213797        2.4120029153
  O        48.3467662180       20.5868458121        1.3322607000
  O        49.5438871998       18.2484316972        2.0733467743
  O        12.3593132134       18.6247078373        0.0048011040
  O        48.6932515723       14.1485856578       14.7461846855
  O         8.2099170838       14.2103490240        1.3276356235
  O        10.7354035222       14.5067289439        2.6694444913
  O        12.5718601893       14.5827472462        1.3336010030
  O        22.8447645714        2.0433556707       13.4818380264
  O        21.6061830602        3.5928906196       14.5838706228
  O        42.0581934379       34.1373214908       15.9738219621
  O        37.9818991876       33.1375327880       13.5673394309
  O        39.2184771079       31.5763563674       14.6619008148
  O        20.3084027154        1.0395959818       14.4969218923
  O        38.0247691446       33.1858386652        2.4202470535
  O        39.2194588090       31.5840410429        1.3312233428
  O        40.6522577671       33.7693530052        2.0653560862
  O        18.2555471768        1.3765767939        0.0018464761
  O        44.6222010488       35.1005668918       14.7536332473
  O        24.2053705034        0.0000237099        1.3259246373
  O        22.7529526174        2.0572693499        2.5887430273
  O        21.6245906780        3.5962415905        1.3479131123
  O        27.4949209595       18.7518187025       13.4920207515
  O        26.7635322564       16.9296159064       14.6459628019
  O        30.6376216351       19.3522521242        0.0690873451
  O        33.5920071543       16.2737254338       13.6636869843
  O        34.2743406177       18.1690236155       14.7310550181
  O        29.5747899929       17.0611415361       14.5676009781
  O        33.6227101899       16.3295313536        2.4163901867
  O        34.3051417767       18.2486851291        1.4101160446
  O        31.6534360367       18.3134880350        2.1617721116
  O        30.3210579786       15.1560761409        0.0949985084
  O        28.5551034771       21.0281172823       14.8959463030
  O        28.5121842133       20.9539708839        1.4160083983
  O        27.4537816932       18.6774282819        2.6650739436
  O        26.6924569180       16.9257556756        1.4202429796
  O        13.1485579557       18.6928727649        2.5925383790
  O        13.9191112408       16.9161839326        1.4100037336
  O        50.5965990345       19.3502976179        0.0255215021
  O        47.6837425394       16.3269644712        2.4223126856
  O        46.9528153749       18.1761392095        1.3289173818
  O        11.0699254112       17.0154772226        1.4947477319
  O        47.6757740128       16.3356048975       13.6477950200
  O        46.9285927977       18.2359166662       14.6602817103
  O        49.5689105831       18.3177148629       13.9771482007
  O        10.3187236663       15.1001075999        0.0021726035
  O        52.6707719001       21.0278863649        1.2469182310
  O        12.1468621020       20.8912441039       14.6681675767
  O        13.1081289552       18.6136314448       13.3205505866
  O        13.9571318220       16.9870668471       14.6603668371
  O        29.9942774157       14.4435635704        2.7390480252
  O        28.0891077020       14.6524958693        1.5019247536
  O        32.1395840774       16.8514706237        0.0917967772
  O        30.9645256765       20.9522675179        2.4137109652
  O        32.9450704701       20.6019034650        1.3420918334
  O        29.5690997587       17.0698295214        1.5832813743
  O        30.8718638428       20.9477400324       13.6578558456
  O        32.8766985074       20.5862161331       14.6626506628
  O        31.6849341876       18.2563296070       14.0119894946
  O        28.2609346672       18.6304876318        0.0808991908
  O        32.4928322108       14.2142438252        1.3377551997
  O        32.4063837754       14.2129117457       14.8193383437
  O        29.9194471944       14.4359307458       13.4864550503
  O        28.0376903336       14.5870074224       14.7464186747
  O        17.8892720748        1.9666266990        2.6679004776
  O        18.9563130122        3.5271114104        1.4130744401
  O        39.1686691738       34.1388786482        0.0022509675
  O        43.2802234994       33.0589719842        2.3367772095
  O        42.0345604630       31.5064681779        1.2467154893
  O        20.3176283216        1.0367328847        1.4852247015
  O        43.2760650745       33.1825998623       13.5697997072
  O        42.0052875267       31.5841194764       14.5778805092
  O        40.5790159808       33.7749858593       13.9307000792
  O        22.3672612383        1.3846423349        0.0029687469
  O        36.6727604557       35.0998190551        1.2383569622
  O        16.4455721502        0.0642820558       14.6631676854
  O        17.9365158518        2.0433681890       13.3212944820
  O        18.9191608895        3.5930981683       14.6608039803
  O        29.8716178984       18.8978260722       12.0829383344
  O        29.7851055214       18.9037161181        4.0072821007
  O        31.3395808432       16.3492203301       12.1428135274
  O        31.3845342308       16.4072241916        4.0584745761
  O        32.2887371656       16.6340535459        9.6640296948
  O        29.8188525998       17.2109582505        9.1681714952
  O        30.4159751410       15.7453268342        6.4959473428
  O        31.4740760492       18.0269537870        6.9078472835
  O        30.8820928695       19.4919555141        9.5825238984
  O        28.8616900578       18.4695883340        6.4987955413
  O        39.4567671865       35.2437782237       11.9968366047
  O        19.1406411785        0.0042523565        3.9956962527
  O        41.9695995956       35.1726198372       12.0820914887
  O        21.6911555452       -0.0693794203        3.9009548992
  O        51.3651630327       18.6142666426       12.0002482431
  O        10.7510960140       18.7471736145        3.9100620664
  O        50.0792204824       16.4127620094       12.0866718880
  O         9.5240101501       16.4831789541        3.9963125261
 Zr         9.2973029063       16.0528329986       14.1774420779
 Zr        49.8367649523       16.0066732350        1.7513313644
 Zr        22.0730859379        0.0293720935       14.1840405884
 Zr        42.4607370217       35.1529043104        1.8060114438
 Zr        29.5948483479       19.0827828004       14.2570183063
 Zr        29.5670684211       19.1630073302        1.8757294269
 Zr        11.0386424814       19.0518839755        1.8329131617
 Zr        11.0446142183       19.1547814747       14.2457560109
 Zr        31.3518485409       16.1067537601        1.9024906259
 Zr        31.3917027631       16.0139608926       14.2873111234
 Zr        18.6008427617       -0.0015298970        1.7683264328
 Zr        18.5062155813       -0.0079025925       14.2085990698
 Zr        12.3027208902       16.3238334933       15.9851527291
 Zr        48.6175078096       18.8332957139        0.0152837372
 Zr        20.3147498783        2.4731001728       15.9853155518
 Zr        40.6433986858       32.6867146952       15.9731593092
 Zr        28.3457571493       16.3394287512        0.0858763198
 Zr        32.6157802679       18.8309944797        0.0633399167
  O        28.6325691107       14.2889072828        8.3338185611
  H        28.9974165525       13.8321994303        9.1116585649
  H        27.7422335772       13.9122826644        8.2336077004
