     576
 i =      217, E =     -4780.0709258024
  C        11.8587236573       14.0534847976       13.7364764224
  C        12.4562361427       12.8905678867       13.0181556567
  C        11.7046017299       12.1717372055       12.0763800510
  C        12.2809834004       11.1095206717       11.3840544266
  C        13.6215228270       10.7396603303       11.6118874832
  C        14.3546127571       11.4431035796       12.5855066860
  C        13.7817159072       12.5080837490       13.2769911380
  C        14.2610726162        9.6490188764       10.8384954239
  C        14.2564616539        9.6569941892        9.4167991492
  C        13.7432595565       10.7591010368        8.6628898268
  C        49.1268173432       21.2332649662       13.8745725768
  C        48.5501181582       22.4012240556       13.1475047863
  C        49.3001860932       23.0685430884       12.1665350361
  C        48.7332642566       24.1077080860       11.4333660859
  C        47.4026936660       24.5092867720       11.6619316732
  C        46.6717052898       23.8603861512       12.6753993185
  C        47.2341305533       22.8154573558       13.4047295489
  C        46.7724483596       25.5869986208       10.8646864740
  C        46.7614803777       25.5574246344        9.4429256278
  C        47.2613957241       24.4423274184        8.6994245139
  C        14.8604139793        8.5706654750        8.7035353180
  C        14.8918343379        8.5970627812       11.5151469324
  C        49.1132506200       21.2034840324        2.1505096703
  C        48.5279235646       22.3648487512        2.8776630573
  C        49.2671713497       23.0256275685        3.8705205624
  C        48.6908439194       24.0601896178        4.6019705285
  C        47.3603995075       24.4569025412        4.3638083198
  C        46.6399389996       23.8119019593        3.3403784938
  C        47.2134898925       22.7759829671        2.6086190324
  C        46.7219361773       25.5318699060        5.1548174845
  C        46.7337085767       25.5282383904        6.5765160037
  C        47.2491142742       24.4289939084        7.3328734645
  C        40.6335970178       17.1559631479        7.3301995016
  C        40.6540796353       17.1797465553        4.5214706793
  C        11.8829701293       14.0864907914        2.2906122685
  C        12.4723029476       12.9106976243        2.9948351594
  C        11.7148118303       12.1775080186        3.9209722703
  C        12.2814226345       11.0950576811        4.5893741858
  C        13.6202501074       10.7213651450        4.3575290087
  C        14.3581882432       11.4368933531        3.3966720778
  C        13.7927333341       12.5180524936        2.7239963489
  C        14.2538782959        9.6246309145        5.1279263159
  C        14.2526137273        9.6446305154        6.5497612774
  C        13.7427271617       10.7535686582        7.2968448030
  C        22.5111689373        3.2442140869       13.7478751776
  C        23.2242721817        4.3497520313       13.0476854882
  C        24.2202837303        4.0703617937       12.1003711158
  C        24.8454714909        5.1104783709       11.4176558616
  C        24.4901135189        6.4518495368       11.6621904472
  C        23.5223326323        6.7227297107       12.6465624715
  C        22.8925173554        5.6844934588       13.3276977147
  C        25.0943521218        7.5587529292       10.8864623412
  C        25.0676185473        7.5514616953        9.4650015452
  C        24.3654371580        6.5521767786        8.7189259392
  C        38.3022845149       31.9301897631       13.8446900543
  C        37.5715727909       30.8407916338       13.1365377435
  C        36.6098538626       31.1445479081       12.1609052069
  C        35.9918184238       30.1241083997       11.4436944895
  C        36.3211595744       28.7752142571       11.6806176346
  C        37.2529294686       28.4788171554       12.6930727763
  C        37.8748694182       29.4979806421       13.4092916719
  C        35.7188947993       27.6837936724       10.8832749114
  C        35.7492003091       27.6999677514        9.4620126446
  C        36.4547732965       28.7030855908        8.7255179886
  C        25.6912675294        8.6210861759        8.7451930935
  C        25.6900831077        8.6341569881       11.5573709426
  C        38.3291757097       31.9623272423        2.1618869398
  C        37.6082264111       30.8896435105        2.9051055238
  C        36.6791292516       31.1992842366        3.9101408677
  C        36.0688063657       30.1814989706        4.6404777993
  C        36.3733315513       28.8286611884        4.3892982895
  C        37.2805640579       28.5289966220        3.3545813528
  C        37.8929892493       29.5432657580        2.6255033697
  C        35.7641786520       27.7300807816        5.1732825419
  C        35.7723711280       27.7237702433        6.5953036056
  C        36.4654717017       28.7147169817        7.3590276060
  C        46.1356707534       26.6208618785        7.2866430100
  C        46.0879861834       26.5802095281        4.4787311187
  C        22.4604807919        3.2557668151        2.2625218821
  C        23.1536299683        4.3648571029        2.9852432075
  C        24.1556663120        4.0795793481        3.9262841904
  C        24.7825783347        5.1103525156        4.6221388162
  C        24.4275903764        6.4558611684        4.3993665672
  C        23.4487176935        6.7343976187        3.4267415868
  C        22.8171056195        5.7038846995        2.7314180778
  C        25.0572325644        7.5543840240        5.1736319276
  C        25.0490922149        7.5486222202        6.5963206982
  C        24.3547026754        6.5520083425        7.3523133891
  C        26.6126258335       17.8547539373       13.7811118976
  C        25.3081256406       17.8944167885       13.0534063478
  C        25.0393575426       18.8965662980       12.1073925556
  C        23.8280027686       18.9096058350       11.4187214859
  C        22.8469905539       17.9256351398       11.6565741352
  C        23.1108673957       16.9463972532       12.6329149006
  C        24.3252936838       16.9264135386       13.3173797208
  C        21.5742090524       17.9095153798       10.8918036087
  C        21.5758905366       17.8921935502        9.4693621160
  C        22.7822599118       17.7725031903        8.7093893827
  C        34.4431051244       17.1930947512       13.9207045160
  C        35.7377962033       17.1442142047       13.1815500366
  C        35.9409310325       16.1842610725       12.1777981198
  C        37.1183186448       16.1807063350       11.4356346101
  C        38.1256335206       17.1339935219       11.6806731052
  C        37.9265520020       18.0723101483       12.7113513698
  C        36.7450225925       18.0835229288       13.4484790233
  C        39.3785975632       17.1495410005       10.8932174176
  C        39.3742826342       17.1708278856        9.4717601944
  C        38.1676837289       17.2969734630        8.7137820204
  C        20.3298434563       17.9119111917        8.7600831437
  C        20.3493598946       17.9114118825       11.5736808991
  C        34.4773372445       17.2466425704        2.1876928809
  C        35.7796109214       17.1756636701        2.9104954935
  C        35.9892923727       16.2014827385        3.8978456336
  C        37.1742756092       16.1877932815        4.6277119761
  C        38.1771787141       17.1471416550        4.3886076621
  C        37.9736373904       18.0959549074        3.3694047877
  C        36.7862711420       18.1154489302        2.6430414096
  C        39.4226981790       17.1695604557        5.1852723380
  C        39.3972535924       17.1819867654        6.6062271862
  C        38.1790066997       17.3007835505        7.3470221587
  C        35.1407201467       26.6447965967        7.2987246937
  C        35.1746687267       26.6594854570        4.4895829322
  C        26.5723112106       17.8274406363        2.3279117891
  C        25.2561395608       17.8707655322        3.0329727149
  C        24.9885830934       18.8777794110        3.9725982022
  C        23.7715548116       18.9001588577        4.6481611595
  C        22.7923742160       17.9160128874        4.4060740606
  C        23.0535980206       16.9343310605        3.4332138546
  C        24.2719393734       16.9093929309        2.7569372073
  C        21.5287928425       17.8955440075        5.1793302109
  C        21.5522392461       17.8834368724        6.6008017374
  C        22.7706143822       17.7681506427        7.3430174289
  C        14.0465581746       17.8286273698        2.2937237958
  C        15.3512478670       17.8845402124        3.0185305209
  C        15.6088788653       18.8860465246        3.9675972239
  C        16.8181748219       18.9047000646        4.6600369098
  C        17.8038564443       17.9247938949        4.4252241961
  C        17.5511544976       16.9478764115        3.4437177120
  C        16.3412959718       16.9244910123        2.7530909770
  C        19.0727408026       17.9047362230        5.1942358139
  C        19.0708362587       17.8978260153        6.6165977825
  C        17.8633593560       17.7977021946        7.3769963994
  C        46.8063231674       17.2205811698        2.1653421515
  C        45.5186490145       17.1652264884        2.9143061442
  C        45.3127861616       16.1942380880        3.9063852512
  C        44.1329261530       16.1844928479        4.6454900540
  C        43.1297811339       17.1456911325        4.4135947600
  C        43.3331567169       18.0964218909        3.3953168162
  C        44.5136976561       18.1103746884        2.6576411700
  C        41.8770854628       17.1640323318        5.2016866048
  C        41.8812747450       17.1661428803        6.6232802059
  C        43.0896567722       17.2589559561        7.3829309889
  C        20.3173134537       17.9064357313        7.3253130596
  C        20.2970771593       17.8860369856        4.5122926945
  C        46.7860952872       17.2310576243       13.8854906623
  C        45.4820385437       17.1274981566       13.1728750134
  C        45.2618179967       16.1345630686       12.2065498150
  C        44.0732937765       16.1142421556       11.4812353783
  C        43.0767347641       17.0836491511       11.7060861477
  C        43.2863948590       18.0445828765       12.7125006855
  C        44.4760731303       18.0716445482       13.4324575431
  C        41.8319013523       17.1151697906       10.9086188915
  C        41.8582843764       17.1395369875        9.4882157380
  C        43.0787547720       17.2438577557        8.7492910447
  C        46.1534411630       26.6372965056        8.7211892002
  C        46.1624891579       26.6561192037       11.5308045979
  C        14.0447163786       17.8297910148       13.7027097580
  C        15.3648824855       17.8987795419       13.0101240488
  C        15.6420311247       18.9128950091       12.0813540628
  C        16.8709638659       18.9447858993       11.4260901793
  C        17.8500133778       17.9616009229       11.6739272622
  C        17.5794957768       16.9759051130       12.6403197959
  C        16.3527398739       16.9436047516       13.2991577047
  C        19.1174835892       17.9327117259       10.9057685559
  C        19.0944151645       17.9107966063        9.4843309620
  C        17.8748010394       17.8036486289        8.7430136138
  C        28.8082404179       14.0914684303        2.3961909513
  C        28.1935747812       12.9183205449        3.0822887599
  C        28.9147507587       12.1791485318        4.0313745233
  C        28.3147638655       11.1043415719        4.6821552779
  C        26.9792096673       10.7459853017        4.4091355204
  C        26.2797293030       11.4656414137        3.4237572500
  C        26.8778623505       12.5400906170        2.7703461399
  C        26.3094712376        9.6670383931        5.1707224612
  C        26.2972023144        9.6934736831        6.5919031717
  C        26.8027325132       10.8054998143        7.3376697777
  C        32.1793413757       21.2436638281        2.1494064090
  C        32.7741348927       22.4105332401        2.8664416301
  C        32.0250162913       23.0885606078        3.8404111871
  C        32.5952520451       24.1270061452        4.5701911413
  C        33.9302373514       24.5155096676        4.3466222629
  C        34.6619209744       23.8563244477        3.3408345094
  C        34.0940973206       22.8121468791        2.6130849961
  C        34.5585222348       25.5901041780        5.1484647051
  C        34.5484575282       25.5616854936        6.5702100545
  C        34.0369710764       24.4475353675        7.3079502310
  C        25.6864849354        8.6160865800        7.3106448378
  C        25.6726458638        8.6164023499        4.4974550959
  C        32.1038799221       21.2291774762       13.8841834914
  C        32.6934712263       22.3834286923       13.1438859024
  C        31.9567239300       23.0417108383       12.1467881699
  C        32.5365490415       24.0690120128       11.4059358148
  C        33.8661360809       24.4686905946       11.6450498563
  C        34.5850050177       23.8241267338       12.6701300886
  C        34.0106349378       22.7905646650       13.4055614241
  C        34.5054369194       25.5493869109       10.8593189307
  C        34.5200271340       25.5412908682        9.4373196486
  C        34.0223353510       24.4382238224        8.6746092800
  C        40.6215018375       17.1464045183        8.7641236865
  C        40.6013328928       17.1388335209       11.5734106506
  C        28.7360660727       14.0653645282       13.8152746287
  C        28.1250609800       12.9224480788       13.0748701969
  C        28.8625405065       12.2186828421       12.1104843990
  C        28.2799579709       11.1646380545       11.4112142183
  C        26.9440257299       10.7865058685       11.6526293825
  C        26.2231861349       11.4771484393       12.6447990641
  C        26.8038525273       12.5328009395       13.3448245648
  C        26.3025020156        9.6961460348       10.8798034713
  C        26.2954786847        9.7083642545        9.4580732649
  C        26.8000659586       10.8138553085        8.7035707557
  C        18.1354037869        3.1809950324        2.3222912629
  C        17.4061531683        4.2782669976        3.0209256015
  C        16.3903862448        3.9999264470        3.9483875008
  C        15.7426521735        5.0399229626        4.6118534916
  C        16.0946902784        6.3836185730        4.3722417280
  C        17.0841336235        6.6531378586        3.4085453049
  C        17.7332222301        5.6157722714        2.7435298729
  C        15.4703886890        7.4913406637        5.1352630686
  C        15.4856663024        7.4906752464        6.5569706216
  C        16.1872683560        6.4970798261        7.3101240901
  C        42.9459367894       31.8595456480        2.0779766513
  C        43.6463228354       30.7718948122        2.8219465368
  C        44.5918690782       31.0932175810        3.8080010771
  C        45.1975845340       30.0876828580        4.5556739155
  C        44.8711475674       28.7346159922        4.3408429785
  C        43.9453226254       28.4202604084        3.3276347345
  C        43.3365072711       29.4254009821        2.5795919320
  C        45.4887710890       27.6553252129        5.1440107245
  C        45.4929557530       27.6809689394        6.5657027431
  C        44.8058505723       28.6890083410        7.3123225072
  C        14.8566853681        8.5631662888        7.2693176366
  C        14.8750830725        8.5630813359        4.4566588759
  C        42.9464613095       31.9615941400       13.8038687290
  C        43.6917192491       30.8854718760       13.0903960541
  C        44.6562907213       31.1914013241       12.1180827625
  C        45.2778592627       30.1718258612       11.4003813090
  C        44.9541143523       28.8215042581       11.6380459646
  C        44.0206349404       28.5238042646       12.6488188326
  C        43.3923427714       29.5405698068       13.3609724775
  C        45.5631333526       27.7241045139       10.8527827670
  C        45.5334732275       27.7174495446        9.4314837873
  C        44.8271112193       28.7076318544        8.6785069555
  C        35.1276860713       26.6334598603        8.7335129600
  C        35.1161500922       26.6073144012       11.5433526698
  C        18.1485444246        3.2470082352       13.7014953783
  C        17.4299692129        4.3438591694       12.9922021053
  C        16.4147540617        4.0525836047       12.0686482804
  C        15.7664728605        5.0832340319       11.3932587937
  C        16.1211920455        6.4284536413       11.6159595689
  C        17.1126054596        6.7118200909       12.5731808345
  C        17.7602609316        5.6829047349       13.2529558077
  C        15.4907188081        7.5241781223       10.8435437279
  C        15.4966310033        7.5075569153        9.4224129513
  C        16.1934532800        6.5058843181        8.6757280612
  H        10.6724931790       12.4659152936       11.8993156525
  H        11.6947358405       10.5510957522       10.6574378018
  H        15.3916102998       11.1684287361       12.7673101448
  H        14.3511085927       13.0712056669       14.0125573366
  H        13.3762119004       11.6312091997        9.1962021659
  H        50.3229114795       22.7485380352       11.9818394444
  H        49.3197406925       24.6230149231       10.6758108416
  H        45.6421831519       24.1611026617       12.8584919518
  H        46.6630894923       22.2901640264       14.1667617325
  H        47.6298898266       23.5759287094        9.2411068241
  H        14.8721280620        8.5882574478       12.6034519958
  H        50.2872531728       22.7028571617        4.0653764812
  H        49.2692427140       24.5757128450        5.3654229610
  H        45.6104976684       24.1090583401        3.1513824538
  H        46.6526250678       22.2537427133        1.8371408795
  H        47.6078669361       23.5518649609        6.8019758342
  H        40.6608823904       17.1436991677        3.4337938326
  H        48.6869783206       14.0949490893       15.7948745443
  H        10.6813246424       12.4665463837        4.0983403230
  H        11.6896414209       10.5246325167        5.3020549841
  H        15.3936261465       11.1590205502        3.2107525976
  H        14.3650612973       13.0874291523        1.9954657036
  H        13.3758777907       11.6221692874        6.7582008619
  H        47.9301675504       14.2181328675        1.7160909408
  H        47.7800736063       14.3735031945       14.4899729562
  H        49.0841289986       18.5526921209        2.8726868955
  H        10.4160208224       14.1342846480        0.0038440360
  H        24.4820129914        3.0319691564       11.9095580796
  H        25.6180941660        4.8939719416       10.6830879340
  H        23.2407876443        7.7554561816       12.8415190493
  H        22.1230186471        5.8838867069       14.0694671200
  H        23.8038127163        5.7957005228        9.2592279273
  H        36.3719097289       32.1877142634       11.9667504073
  H        35.2457793633       30.3625784623       10.6888251887
  H        37.5143599829       27.4398099344       12.8826776324
  H        38.6201004980       29.2776435353       14.1699068526
  H        37.0195385520       29.4526958382        9.2720839407
  H        25.7239733865        8.6176487159       12.6452293253
  H        36.4559743155       32.2436802339        4.1161669896
  H        35.3425902169       30.4271039566        5.4121721891
  H        37.5276941729       27.4885813365        3.1540789408
  H        38.6157136087       29.3168943434        1.8453880571
  H        37.0395992490       29.4728155901        6.8341402568
  H        46.1093630524       26.5875846766        3.3906951446
  H        44.6682613695       35.1161832451       15.8088228148
  H        24.4338720586        3.0415524170        4.0939133769
  H        25.5632650215        4.8824206381        5.3447335959
  H        23.1632639378        7.7686964902        3.2458079228
  H        22.0454528674        5.9158393080        1.9949372344
  H        23.7841475279        5.7959497365        6.8207425391
  H        44.9537327282       34.3902936408        1.7002438085
  H        44.9016083775       34.2067223189       14.4855490442
  H        40.6659846988       33.2090886107        2.8582788925
  H        23.1503414142        1.9579272599        0.0103058667
  H        25.7878465913       19.6652138954       11.9286158297
  H        23.6252596468       19.6925652111       10.6910607647
  H        22.3649074478       16.1779964260       12.8256443538
  H        24.5399418994       16.1567636316       14.0551991993
  H        23.7229486939       17.6534497251        9.2391848288
  H        35.1593161314       15.4517385914       11.9902832886
  H        37.2741350784       15.4307044836       10.6633409419
  H        38.6973716464       18.8155876936       12.9043349060
  H        36.5729486981       18.8240645002       14.2261822999
  H        37.2269274221       17.4195761032        9.2431251243
  H        20.3555198470       17.9494789311       12.6616172955
  H        35.2037318770       15.4742745822        4.0896517353
  H        37.3368412505       15.4301405578        5.3911158863
  H        38.7423895285       18.8426198869        3.1814178905
  H        36.6058530058       18.8659778747        1.8770998399
  H        37.2472210462       17.4259903546        6.8030170929
  H        35.1484787194       26.6852437059        3.4018540106
  H        28.5100866091       21.0852300661       15.9767413161
  H        25.7474507773       19.6356018484        4.1542031313
  H        23.5636133959       19.6849803066        5.3722909505
  H        22.3055137076       16.1680006733        3.2406445812
  H        24.4903352231       16.1394169141        2.0208107921
  H        23.7021689562       17.6457152868        6.7984565988
  H        29.0072007496       21.7201174046        1.7642189220
  H        29.1429474764       21.7521454353       14.6080866214
  H        32.0869774633       18.5726174486        2.9906214145
  H        27.4029908831       19.0736252469        0.0883629557
  H        14.8509812553       19.6452418746        4.1474940420
  H        17.0143318603       19.6873075676        5.3898209607
  H        18.3018770694       16.1835815742        3.2533836543
  H        16.1343299413       16.1568867278        2.0112048157
  H        16.9211013729       17.6838327065        6.8489104144
  H        46.0942288878       15.4608469933        4.0910546826
  H        43.9728955280       15.4237784013        5.4063720358
  H        42.5663987438       18.8464326211        3.2126874486
  H        44.6879193936       18.8586611905        1.8880646165
  H        44.0318023249       17.3734622804        6.8545099480
  H        20.2914783485       17.9182529518        3.4242328804
  H        46.0378126786       15.3944522777       12.0248939753
  H        43.9044372951       15.3450323734       10.7307946005
  H        42.5208985852       18.7964861122       12.8924418565
  H        44.6610796588       18.8331411113       14.1860031718
  H        44.0125956384       17.3455103768        9.2945499432
  H        46.1993193768       26.6826451213       12.6182521301
  H        52.7411773641       21.0626113969        0.1998237454
  H        14.8847048988       19.6699117751       11.8898119888
  H        17.0854189226       19.7342428244       10.7089584741
  H        18.3267021785       16.2103199516       12.8389887963
  H        16.1283225160       16.1700888484       14.0295337431
  H        16.9411303899       17.6943527788        9.2865230860
  H        52.3224270708       21.6732594446       14.2891607134
  H        52.0131436564       21.7019922609        1.5007391551
  H        49.0675541600       18.6078601831       13.1991295031
  H        13.2476215139       19.0160815102       15.9719504199
  H        29.9423908817       12.4630239450        4.2462795041
  H        28.8754639503       10.5298085654        5.4162478184
  H        25.2476734414       11.1987095241        3.2057880206
  H        26.3357196162       13.1173540660        2.0254113602
  H        27.1678916939       11.6737209528        6.7973691837
  H        30.9997868734       22.7750812957        4.0215655401
  H        32.0093219465       24.6515951011        5.3217426653
  H        35.6952800711       24.1470171486        3.1629637558
  H        34.6648095821       22.2769926760        1.8575839010
  H        33.6795731283       23.5796476601        6.7611401297
  H        25.7026995470        8.5970543373        3.4094579291
  H        30.9320120324       22.7274889412       11.9605906038
  H        31.9589806143       24.5804295441       10.6389222336
  H        35.6141487976       24.1219081683       12.8600415795
  H        34.5715286942       22.2699386186       14.1783114861
  H        33.6542954436       23.5625368549        9.2016829056
  H        40.5937701161       17.0932696750       12.6607523512
  H        32.5188617014       14.1445491827        0.2723816940
  H        29.8955591019       12.5060667290       11.9289939582
  H        28.8593366008       10.6149683382       10.6725810614
  H        25.1895888651       11.1973193146       12.8379103481
  H        26.2444853344       13.0815948948       14.0988274092
  H        27.1617656675       11.6888582287        9.2358604740
  H        33.2970893216       14.1911802379       14.4314021617
  H        33.4095731950       14.4053387178        1.6171942492
  H        32.2744484252       18.6119437344       13.2382208128
  H        30.2217552947       14.1914156782        0.0831224508
  H        16.1182343139        2.9634350088        4.1347263488
  H        14.9531407155        4.8205960575        5.3274625296
  H        17.3666797953        7.6859960505        3.2155144556
  H        18.5153129529        5.8183647894        2.0157239127
  H        16.7538317544        5.7397498573        6.7766171334
  H        44.8281436619       32.1403038602        3.9821775669
  H        45.9374661386       30.3414484087        5.3115994077
  H        43.6826114445       27.3781917241        3.1575341079
  H        42.5998799513       29.1900468622        1.8149423611
  H        44.2304692431       29.4367607508        6.7740259965
  H        14.8513062562        8.5463014595        3.3684397556
  H        44.8998157275       32.2340873844       11.9266432116
  H        46.0247543215       30.4130556613       10.6471346706
  H        43.7637051726       27.4840668758       12.8403858477
  H        42.6458834973       29.3177616290       14.1194525775
  H        44.2685844818       29.4705013810        9.2130970454
  H        35.0747803824       26.6189315263       12.6308671603
  H        36.6051291972       35.1340860371        0.1857308652
  H        16.1436295152        3.0130129959       11.8989504828
  H        14.9741122493        4.8564343571       10.6831996903
  H        17.3961591778        7.7472781819       12.7500456999
  H        18.5431798798        5.8933096549       13.9776859000
  H        16.7648974515        5.7556626218        9.2141812135
  H        36.2785440924       34.4825814939       14.2680723692
  H        36.3808522766       34.2091907283        1.5047870003
  H        40.5801728896       33.2025362522       13.1485265114
  H        17.4706571832        1.9473354804       15.9690391042
  H        29.2216816583       19.5237476899        4.5441339306
  H        28.6699099052       19.0114444396       11.8435552054
  H        30.7722385987       15.3220425186       11.8013203140
  H        31.0666123292       15.5726555621        4.4697491602
  H        28.1952699254       18.4677786433        6.8414046410
  H        29.0563523213       15.6341100006        6.4945576214
  H        31.0275627493       19.7613626711       10.1616836674
  H        32.5663644787       17.7272300319        9.4616387274
  H        28.9159804644       16.6050233134        9.5677370074
  H        18.8539466961        0.8692095813        4.3404294478
  H        40.5279764607       35.2290512780       11.9469409116
  H        42.3241301294       34.4189808170       11.5853284440
  H        22.0878745716        0.6923946478        4.3565644893
  H        11.5969544225       18.7131911187        4.3877154727
  H        52.2649075829       18.4312330215       11.6720583104
  H        49.2551748398       16.4770827911       11.5795028598
  H        10.1509521001       15.7980536124        4.2974331664
  H        50.8500818212       17.6924103017       11.9491766091
  H        10.0464925429       17.3944545959        4.0570804226
  H        20.2153273600        0.0024566871        4.0470346089
  H        39.1836919191       36.1244554295       11.6812711975
 Ni        30.5640476491       17.5954381967       11.1579130686
 Ni        30.9000520365       16.3799816784        8.1607002995
 Ni        30.1433942517       18.7673979001        8.1617675046
 Ni        30.2659123809       17.5768908318        5.3302648568
  O        10.6499558199       14.3650805509       13.4807034602
  O        12.6131832456       14.6574843747       14.5787914260
  O        49.1481340378       16.8459037093       15.9846298752
  O        50.3502783896       20.9358797959       13.6429767195
  O        48.3485794315       20.5933683067       14.6608177215
  O        11.0517491477       17.0538595126       14.4955260821
  O        50.3210886184       20.8816737264        2.4119562194
  O        48.3467850104       20.5868340875        1.3322825481
  O        49.5437784098       18.2484343789        2.0734712626
  O        12.3590384619       18.6246265018        0.0048446523
  O        48.6932676306       14.1485558181       14.7461868753
  O         8.2098411212       14.2103809671        1.3276751986
  O        10.7353830676       14.5067306530        2.6694185756
  O        12.5718193517       14.5827888919        1.3336074767
  O        22.8444874610        2.0431827393       13.4821269784
  O        21.6052196662        3.5921316969       14.5848988522
  O        42.0582409343       34.1374178544       15.9739085742
  O        37.9817620055       33.1384409626       13.5675837554
  O        39.2182346804       31.5764641261       14.6616388811
  O        20.3084539982        1.0396603410       14.4969499731
  O        38.0248565457       33.1861361859        2.4202144927
  O        39.2190930599       31.5837614956        1.3316629986
  O        40.6523199799       33.7693959900        2.0653966892
  O        18.2553687235        1.3762093748        0.0019496959
  O        44.6222370843       35.1005372157       14.7536318134
  O        24.2054259058        0.0000065221        1.3258943292
  O        22.7529449292        2.0578329653        2.5889077911
  O        21.6242630192        3.5958850519        1.3473930531
  O        27.4880706585       18.7508744746       13.4928810860
  O        26.7634012721       16.9330658356       14.6507731663
  O        30.6721146466       19.4035224509        0.0684621807
  O        33.5890164824       16.2774862978       13.6622395259
  O        34.2711817082       18.1713610056       14.7298157621
  O        29.5812553652       17.0692336818       14.5689571727
  O        33.6194205715       16.3300854710        2.4171170692
  O        34.3057637403       18.2478380935        1.4116040807
  O        31.6571496443       18.3135399633        2.1587892499
  O        30.3256836495       15.1571090960        0.0907663525
  O        28.5526177004       21.0343023683       14.9004115697
  O        28.5142738683       20.9575353687        1.4158605803
  O        27.4569505572       18.6790773814        2.6635770658
  O        26.6955201432       16.9285110232        1.4161501009
  O        13.1489764387       18.6928689249        2.5926141576
  O        13.9192332497       16.9161292276        1.4099211809
  O        50.5963678003       19.3503101748        0.0256843926
  O        47.6832524402       16.3271845580        2.4225402489
  O        46.9523177897       18.1760616918        1.3293162359
  O        11.0697264997       17.0155966227        1.4948140775
  O        47.6762014943       16.3355085006       13.6479509889
  O        46.9287666113       18.2357787942       14.6603829561
  O        49.5688618130       18.3177308438       13.9772054045
  O        10.3186316241       15.1001336749        0.0022085761
  O        52.6707682306       21.0278829993        1.2469391691
  O        12.1468598057       20.8911738463       14.6680744545
  O        13.1085513885       18.6134819645       13.3204145938
  O        13.9568046612       16.9866961809       14.6606802031
  O        29.9925558584       14.4407501895        2.7356149582
  O        28.0898374715       14.6544800364        1.4985518522
  O        32.1394282192       16.8614648982        0.0833527458
  O        30.9660655824       20.9549166804        2.4124447091
  O        32.9478892130       20.6018804315        1.3457922675
  O        29.5684846927       17.0766633718        1.5804561007
  O        30.8756631244       20.9462987701       13.6592630824
  O        32.8808864944       20.5800388172       14.6610754983
  O        31.6715468887       18.2487810782       13.9057220238
  O        28.2897677548       18.6780218153        0.0790622902
  O        32.4944848598       14.2132783828        1.3397497254
  O        32.4068341854       14.2095866978       14.8206140891
  O        29.9132072938       14.4351476478       13.4863125947
  O        28.0377073993       14.5892201303       14.7491990548
  O        17.8892068000        1.9666568483        2.6679503085
  O        18.9561971508        3.5271588270        1.4131047990
  O        39.1686735108       34.1388753316        0.0023361909
  O        43.2802438011       33.0589805947        2.3368064759
  O        42.0345429536       31.5064442889        1.2467533869
  O        20.3177087915        1.0367453402        1.4853198568
  O        43.2760916160       33.1825812598       13.5698010321
  O        42.0052880140       31.5841045276       14.5778834437
  O        40.5790483637       33.7749977364       13.9308027361
  O        22.3673195133        1.3845710504        0.0030780060
  O        36.6727401921       35.0997921988        1.2383787372
  O        16.4455674653        0.0643462307       14.6632071540
  O        17.9364700127        2.0434097131       13.3212484399
  O        18.9189814903        3.5931575327       14.6608142446
  O        29.6159851843       19.0465978521       12.0772838035
  O        29.8234298264       18.9789355406        4.0032293025
  O        31.3505397075       16.0622139433       12.0745399489
  O        31.3001115075       16.4049501014        4.0120955839
  O        32.7790729548       16.7788984500        9.2586529448
  O        29.7889513725       16.2652409785        9.8292731786
  O        29.9872612658       15.8995162200        6.4286798333
  O        31.5185923975       17.9499586383        6.9163050100
  O        31.2211062741       18.9033752634        9.7396217715
  O        29.1018544881       18.7557162310        6.6470336750
  O        39.4568037355       35.2438322691       11.9968515839
  O        19.1418884458        0.0047890075        3.9956359377
  O        41.9695881945       35.1727059832       12.0820684003
  O        21.6914886975       -0.0691464485        3.9010976905
  O        51.3651375870       18.6142976495       12.0003351399
  O        10.7512234677       18.7472221810        3.9100443110
  O        50.0797000947       16.4128070705       12.0866102478
  O         9.5249552654       16.4829720800        3.9963306226
 Zr         9.2969950128       16.0527202000       14.1773415909
 Zr        49.8362403663       16.0066593000        1.7515021631
 Zr        22.0732854029        0.0299207006       14.1839243645
 Zr        42.4610025142       35.1535742376        1.8060631250
 Zr        29.5988154713       19.1145591219       14.2928066632
 Zr        29.5815545033       19.1727703863        1.8805234202
 Zr        11.0381375054       19.0519731246        1.8328504765
 Zr        11.0439159362       19.1548459996       14.2460311270
 Zr        31.3528689812       16.1032319709        1.9040741663
 Zr        31.4076995440       15.9997974371       14.2967340824
 Zr        18.6011952180       -0.0012609792        1.7685487691
 Zr        18.5065416093       -0.0074971775       14.2086667236
 Zr        12.3018645936       16.3234850108       15.9853399628
 Zr        48.6168425101       18.8332526669        0.0154692696
 Zr        20.3150918278        2.4734379258       15.9854760477
 Zr        40.6435564689       32.6872323121       15.9732110097
 Zr        28.3529144866       16.3448899749        0.0906766006
 Zr        32.6319479219       18.8369456324        0.0746604165
  H        32.4420959765       18.2403117447        6.8449063615
  H        32.7504457243       16.3452146332       10.1380039760
  H        28.9960060640       19.1132306625        8.9744807595
  H        31.8050013750       14.6759606437        7.8930762208
  H        31.3104866412       14.5213455005        8.4661735962
