     574
 i =      135, E =     -4778.9146827902
  C        11.8586203140       14.0536097812       13.7364603743
  C        12.4561511086       12.8905895079       13.0181937869
  C        11.7045460926       12.1718163462       12.0763579338
  C        12.2809278123       11.1096238541       11.3839849308
  C        13.6214262326       10.7396805063       11.6119001231
  C        14.3544911674       11.4430609049       12.5855839579
  C        13.7815893043       12.5080245554       13.2771037103
  C        14.2610263011        9.6490503449       10.8385006305
  C        14.2564711363        9.6570160370        9.4167921289
  C        13.7433125114       10.7591467744        8.6628813993
  C        49.1265447866       21.2332610869       13.8746137624
  C        48.5497301210       22.4010738014       13.1474670317
  C        49.2998758004       23.0685897789       12.1666797255
  C        48.7329489854       24.1077136280       11.4334748738
  C        47.4023220382       24.5091772127       11.6619088465
  C        46.6712300359       23.8600828681       12.6751694306
  C        47.2336748408       22.8151882730       13.4045370883
  C        46.7721655999       25.5869133740       10.8646269773
  C        46.7613478571       25.5573840803        9.4428635104
  C        47.2612924030       24.4422934401        8.6993756355
  C        14.8604700798        8.5707057922        8.7035283107
  C        14.8917359730        8.5970511886       11.5151572316
  C        49.1130803004       21.2034100435        2.1504713232
  C        48.5277034603       22.3647107223        2.8776417934
  C        49.2670342343       23.0256119919        3.8703670781
  C        48.6907009328       24.0601799835        4.6018031261
  C        47.3601931224       24.4567688977        4.3637292391
  C        46.6396535900       23.8116338181        3.3404404965
  C        47.2132079315       22.7757059829        2.6086841256
  C        46.7217924469       25.5317823591        5.1547356070
  C        46.7336329261       25.5282144809        6.5764365946
  C        47.2490660122       24.4290016745        7.3328226993
  C        40.6214501536       17.0860855134        7.3157206350
  C        40.6332510376       17.1046034352        4.5059847991
  C        11.8828875349       14.0865684922        2.2905654190
  C        12.4722484604       12.9107183813        2.9948007499
  C        11.7147963754       12.1776659254        3.9210693785
  C        12.2813644343       11.0951806172        4.5894735275
  C        13.6201165065       10.7213156056        4.3575149149
  C        14.3579902052       11.4366882054        3.3964914554
  C        13.7925882103       12.5178934053        2.7238197500
  C        14.2537585696        9.6245942341        5.1279277623
  C        14.2526356603        9.6446504999        6.5497651496
  C        13.7427709141       10.7536056187        7.2968329673
  C        22.5113206456        3.2449050945       13.7469748287
  C        23.2241724958        4.3504553118       13.0449540966
  C        24.2215778313        4.0703415255       12.0992063467
  C        24.8477303091        5.1095510381       11.4155969418
  C        24.4921860393        6.4514673766       11.6572143822
  C        23.5224813640        6.7231726293       12.6396719092
  C        22.8919106137        5.6857525112       13.3218484038
  C        25.0982619893        7.5579520460       10.8811457315
  C        25.0746670363        7.5497239426        9.4593219921
  C        24.3767678449        6.5486029816        8.7115820114
  C        38.3015006497       31.9290401141       13.8445291076
  C        37.5694568804       30.8401230383       13.1364996347
  C        36.6062045261       31.1450917590       12.1625508770
  C        35.9862098660       30.1258041550       11.4452379886
  C        36.3149164663       28.7762310696       11.6795972714
  C        37.2482206459       28.4786170537       12.6904680234
  C        37.8719839795       29.4966308109       13.4070834914
  C        35.7120958409       27.6855309339       10.8808689668
  C        35.7425907701       27.7031311436        9.4593948048
  C        36.4447869014       28.7089158486        8.7232334069
  C        25.6977373950        8.6202299838        8.7401244631
  C        25.6927576182        8.6342877142       11.5523287041
  C        38.3288065053       31.9627613108        2.1611531079
  C        37.6065221814       30.8908736238        2.9031626038
  C        36.6757970086       31.2014914625        3.9063805928
  C        36.0641856497       30.1842857445        4.6361921723
  C        36.3694748374       28.8314370326        4.3863001704
  C        37.2780756150       28.5308096296        3.3530810570
  C        37.8915568597       29.5444516631        2.6242838824
  C        35.7604698608       27.7331824889        5.1701827244
  C        35.7671825369       27.7277202655        6.5921708574
  C        36.4561685466       28.7210004154        7.3566829653
  C        46.1356588151       26.6208741587        7.2865646745
  C        46.0877420649       26.5800667991        4.4786625624
  C        22.4624584601        3.2557269076        2.2616856539
  C        23.1604223940        4.3642760519        2.9818975163
  C        24.1669053076        4.0776551236        3.9178605330
  C        24.7983094341        5.1073540775        4.6115683799
  C        24.4432736055        6.4533779390        4.3921613098
  C        23.4601502796        6.7333555645        3.4242389856
  C        22.8243734939        5.7039184257        2.7307807162
  C        25.0744787546        7.5512149356        5.1669913136
  C        25.0633813435        7.5455009459        6.5898230460
  C        24.3695378579        6.5476662491        7.3448588632
  C        26.6193843518       17.8599490065       13.7767454869
  C        25.3121867512       17.9093492624       13.0532366746
  C        25.0511214140       18.9086559821       12.1021146106
  C        23.8382327858       18.9284263762       11.4157994310
  C        22.8492612018       17.9536782438       11.6595598492
  C        23.1061019857       16.9779406490       12.6414433131
  C        24.3210519751       16.9518391514       13.3245175293
  C        21.5762391446       17.9393013301       10.8947625510
  C        21.5768952112       17.9181322585        9.4722385460
  C        22.7828556429       17.7950589477        8.7123948078
  C        34.4375549796       17.1958468185       13.9131483488
  C        35.7304267458       17.1425095138       13.1693054328
  C        35.9349524829       16.1690245283       12.1790366377
  C        37.1148819179       16.1532345523       11.4407466399
  C        38.1227870974       17.1093241740       11.6726698156
  C        37.9212036082       18.0631874978       12.6883818717
  C        36.7382821777       18.0846259950       13.4238981931
  C        39.3759522569       17.1140754993       10.8836597791
  C        39.3686665188       17.1184720838        9.4616195197
  C        38.1599769508       17.2381481586        8.7056864196
  C        20.3306007760       17.9351303178        8.7630372849
  C        20.3511797760       17.9409483903       11.5765631096
  C        34.4437886349       17.2375678644        2.1899729535
  C        35.7461241183       17.1378206096        2.9113801332
  C        35.9527737694       16.1549633356        3.8906748024
  C        37.1419534891       16.1244663192        4.6149886427
  C        38.1539255943       17.0758503856        4.3795531249
  C        37.9539562704       18.0311957942        3.3656283800
  C        36.7638447138       18.0665931745        2.6448021233
  C        39.4029892417       17.0906348438        5.1733323431
  C        39.3824972013       17.1066223897        6.5947588505
  C        38.1666946164       17.2306327071        7.3389163822
  C        35.1391633390       26.6464914272        7.2950677088
  C        35.1738023073       26.6613684723        4.4858904963
  C        26.5726149681       17.8277462970        2.3304530101
  C        25.2575632394       17.8729245371        3.0375382842
  C        24.9937855722       18.8769968589        3.9813355239
  C        23.7760515766       18.9029326865        4.6553210416
  C        22.7924174086       17.9241040828        4.4092154581
  C        23.0505323245       16.9446598466        3.4331714125
  C        24.2691037458       16.9170352856        2.7574116505
  C        21.5286890107       17.9063510954        5.1819727065
  C        21.5523968823       17.8990812175        6.6035144191
  C        22.7706380377       17.7853663306        7.3461616356
  C        14.0465622659       17.8288462328        2.2939790507
  C        15.3511481739       17.8860482530        3.0194956143
  C        15.6078976438       18.8897309700        3.9665633100
  C        16.8168236289       18.9108175253        4.6596207211
  C        17.8033709573       17.9310500386        4.4277834468
  C        17.5513816606       16.9515346124        3.4486141382
  C        16.3418959082       16.9258953116        2.7571241227
  C        19.0724342341       17.9143888627        5.1970250607
  C        19.0709868150       17.9127513613        6.6195586597
  C        17.8638254066       17.8147119184        7.3806471328
  C        46.8028200501       17.2163525392        2.1623575027
  C        45.5101044571       17.1465496320        2.9034453178
  C        45.3054753376       16.1627344818        3.8834835423
  C        44.1219020862       16.1351416999        4.6163747820
  C        43.1120228346       17.0912697747        4.3921998904
  C        43.3134002832       18.0539729111        3.3844380390
  C        44.4978297431       18.0854429445        2.6521624776
  C        41.8588855854       17.0953521865        5.1821271217
  C        41.8669916288       17.0974575250        6.6043520834
  C        43.0771483190       17.1948039808        7.3608664079
  C        20.3176274371       17.9247683902        7.3281646822
  C        20.2967823457       17.8941923749        4.5151150332
  C        46.7847502105       17.2318936813       13.8818486938
  C        45.4830559008       17.1265033577       13.1628665903
  C        45.2655618730       16.1263443950       12.2028216631
  C        44.0783004577       16.0974751083       11.4751679336
  C        43.0781276680       17.0659070116       11.6894611658
  C        43.2866777600       18.0368571710       12.6869870601
  C        44.4748739256       18.0718516730       13.4101701528
  C        41.8307487672       17.0841247494       10.8933803503
  C        41.8527554572       17.0905205810        9.4720220429
  C        43.0704501017       17.1885872521        8.7276516635
  C        46.1534058298       26.6372973560        8.7211091310
  C        46.1621553277       26.6559956446       11.5307484608
  C        14.0451986053       17.8318375765       13.7037889627
  C        15.3662156319       17.9065226425       13.0131272565
  C        15.6395067519       18.9229562209       12.0856729145
  C        16.8684810000       18.9610209649       11.4308532246
  C        17.8516303534       17.9817776192       11.6778259459
  C        17.5851405339       16.9941035610       12.6434281162
  C        16.3581692786       16.9555628731       13.3017482764
  C        19.1190158657       17.9579593700       10.9090669321
  C        19.0953063472       17.9341253263        9.4875618550
  C        17.8756768245       17.8241874594        8.7466484678
  C        28.7920035929       14.1161168021        2.4019314866
  C        28.1902110798       12.9376020362        3.0903381133
  C        28.9161093456       12.1977541074        4.0351534754
  C        28.3231499977       11.1159020684        4.6817225048
  C        26.9891893934       10.7505359370        4.4085035069
  C        26.2854295602       11.4708045618        3.4267077041
  C        26.8767432634       12.5515820918        2.7777884087
  C        26.3232069917        9.6663347677        5.1668596686
  C        26.3060838078        9.6932560247        6.5877374108
  C        26.8038107028       10.8082753764        7.3339673350
  C        32.1809990398       21.2414234992        2.1480057687
  C        32.7761793887       22.4090970686        2.8646270766
  C        32.0257120719       23.0922616607        3.8340149759
  C        32.5963730873       24.1306046283        4.5635994934
  C        33.9333503801       24.5146697367        4.3435085890
  C        34.6660637913       23.8513689512        3.3416007843
  C        34.0976748931       22.8068154022        2.6145743672
  C        34.5607329747       25.5904008619        5.1445773467
  C        34.5520657354       25.5609643342        6.5660335225
  C        34.0497648403       24.4419222612        7.3024829112
  C        25.6965970273        8.6145030199        7.3054824061
  C        25.6904524590        8.6139735439        4.4920761822
  C        32.1185416346       21.1936824602       13.8412853463
  C        32.7024569175       22.3533277970       13.1054036932
  C        31.9689506191       23.0086788522       12.1045346023
  C        32.5435427424       24.0497697789       11.3795727705
  C        33.8663158179       24.4622793015       11.6342766655
  C        34.5814969207       23.8204809438       12.6633184906
  C        34.0104732290       22.7766666026       13.3865091646
  C        34.5036962507       25.5478114121       10.8541830096
  C        34.5225678202       25.5392358442        9.4322061119
  C        34.0354520463       24.4314307995        8.6690861012
  C        40.6138922987       17.0874680141        8.7505632093
  C        40.6009405708       17.1133983109       11.5606119428
  C        28.7203796841       14.0978904791       13.7791872601
  C        28.1152388415       12.9457699312       13.0474848711
  C        28.8533567604       12.2432583424       12.0825895662
  C        28.2757709211       11.1786197343       11.3948855666
  C        26.9439885751       10.7910945396       11.6453687394
  C        26.2238686256       11.4799842489       12.6393449538
  C        26.8002904294       12.5437293750       13.3305120805
  C        26.3045467918        9.6973216789       10.8753583510
  C        26.2975547604        9.7093729610        9.4535709458
  C        26.7975767126       10.8172377911        8.6995628459
  C        18.1353580581        3.1809546091        2.3221706255
  C        17.4060293980        4.2782304931        3.0207691150
  C        16.3905947148        3.9998521278        3.9485846488
  C        15.7428893065        5.0398139999        4.6121174537
  C        16.0945170595        6.3835563857        4.3721803848
  C        17.0835491576        6.6530929841        3.4080644901
  C        17.7326220935        5.6157701274        2.7429752274
  C        15.4702500941        7.4912742595        5.1352308669
  C        15.4856684395        7.4906684864        6.5569450580
  C        16.1873077882        6.4971233346        7.3101328691
  C        42.9458630451       31.8594462283        2.0779778530
  C        43.6461948908       30.7718141826        2.8219194220
  C        44.5918831810       31.0931263731        3.8078517303
  C        45.1975717755       30.0875623570        4.5555034806
  C        44.8709986805       28.7345042756        4.3407483298
  C        43.9450002437       28.4201804959        3.3276856232
  C        43.3362082365       29.4253395475        2.5796457034
  C        45.4886176843       27.6552309269        5.1439412499
  C        45.4929253045       27.6809733060        6.5656305923
  C        44.8058357909       28.6890285441        7.3122387153
  C        14.8567119317        8.5631717688        7.2693026550
  C        14.8748838970        8.5630065608        4.4566517066
  C        42.9464558814       31.9615415676       13.8038238757
  C        43.6916331380       30.8854662055       13.0903277262
  C        44.6563573908       31.1913514939       12.1181338919
  C        45.2778673674       30.1717466283       11.4004367606
  C        44.9539120515       28.8214357983       11.6379201773
  C        44.0202651484       28.5237885674       12.6485494029
  C        43.3920176052       29.5405667541       13.3607088393
  C        45.5629812161       27.7240520264       10.8526838438
  C        45.5334264174       27.7174518148        9.4313851306
  C        44.8271178496       28.7076826369        8.6784212933
  C        35.1253799033       26.6347206027        8.7298046137
  C        35.1100545463       26.6075435730       11.5395401769
  C        18.1486209357        3.2469251345       13.7014997509
  C        17.4299931635        4.3438197700       12.9922508397
  C        16.4149336425        4.0525550930       12.0685167275
  C        15.7666261235        5.0831981676       11.3931194705
  C        16.1211273467        6.4284504179       11.6160213518
  C        17.1123151792        6.7118256469       12.5734910660
  C        17.7599837225        5.6828949995       13.2532579834
  C        15.4906757656        7.5241728768       10.8435682587
  C        15.4966905948        7.5076092991        9.4224284210
  C        16.1935263617        6.5059478671        8.6757394881
  H        10.6724738739       12.4660734349       11.8992143271
  H        11.6946831075       10.5512463473       10.6573299166
  H        15.3914552379       11.1683108533       12.7674775717
  H        14.3509518486       13.0711380273       14.0127006763
  H        13.3762248252       11.6312358829        9.1962044236
  H        50.3226544461       22.7486910101       11.9821073493
  H        49.3194857141       24.6231166125       10.6760328842
  H        45.6416308048       24.1606172783       12.8581143021
  H        46.6625213267       22.2897896984       14.1664130092
  H        47.6296949914       23.5758579409        9.2410597360
  H        14.8719266998        8.5882208764       12.6034651883
  H        50.2871485902       22.7029059464        4.0651498988
  H        49.2691220824       24.5757771367        5.3651918453
  H        45.6101357447       24.1086177064        3.1515885902
  H        46.6522325618       22.2533550920        1.8373609503
  H        47.6077451523       23.5518356610        6.8019338876
  H        40.6371310637       17.0705236107        3.4181608052
  H        48.6870290284       14.0950055488       15.7949036271
  H        10.6813605735       12.4668361990        4.0985489967
  H        11.6895945260       10.5248802406        5.3022638698
  H        15.3933611637       11.1586675165        3.2104140371
  H        14.3648331982       13.0871543720        1.9951224497
  H        13.3758759997       11.6221826248        6.7581857159
  H        47.9300406875       14.2187263572        1.7157328198
  H        47.7799635757       14.3737586730       14.4901413986
  H        49.0826188088       18.5518703137        2.8721533121
  H        10.4157245944       14.1343949186        0.0037339337
  H        24.4840957839        3.0317877105       11.9102715602
  H        25.6216944614        4.8915259439       10.6828767880
  H        23.2400439989        7.7560254213       12.8327432794
  H        22.1213348148        5.8865225162       14.0621799932
  H        23.8156638741        5.7908683735        9.2507058660
  H        36.3684137472       32.1885294056       11.9696716021
  H        35.2390977974       30.3659292236       10.6919459622
  H        37.5094994574       27.4392891434       12.8785833835
  H        38.6181471472       29.2745108700       14.1662943026
  H        37.0067500388       29.4604459533        9.2700676874
  H        25.7254591966        8.6179072888       12.6402456052
  H        36.4526177154       32.2460802219        4.1113518742
  H        35.3366319295       30.4301841679        5.4065199088
  H        37.5253605641       27.4901902290        3.1538761845
  H        38.6153730227       29.3176879982        1.8453084604
  H        37.0280437841       29.4812912475        6.8325444833
  H        46.1089554322       26.5873314929        3.3906217031
  H        44.6681568620       35.1160802920       15.8088292103
  H        24.4448544758        3.0392376217        4.0835540198
  H        25.5818952917        4.8777634352        5.3305172643
  H        23.1742987197        7.7679680095        3.2457327630
  H        22.0495066303        5.9174617011        1.9981149208
  H        23.8023749445        5.7897287820        6.8123280460
  H        44.9533476445       34.3899093443        1.6999552274
  H        44.9012415713       34.2066368046       14.4854679080
  H        40.6657185730       33.2088302884        2.8580277340
  H        23.1506016827        1.9576736991        0.0098458522
  H        25.8087781153       19.6667770715       11.9165343657
  H        23.6412951536       19.7093249875       10.6843230558
  H        22.3542922291       16.2165249785       12.8391032974
  H        24.5300013953       16.1846854968       14.0665384518
  H        23.7235973949       17.6771307304        9.2423542697
  H        35.1512467834       15.4373245965       11.9976254686
  H        37.2724116264       15.3911808266       10.6806552706
  H        38.6909269853       18.8100999631       12.8714700722
  H        36.5659784225       18.8359618922       14.1911271027
  H        37.2219279782       17.3702400213        9.2375912974
  H        20.3573155581       17.9805884081       12.6644501393
  H        35.1619469599       15.4327091083        4.0799670808
  H        37.3012320940       15.3596936044        5.3720466571
  H        38.7284476520       18.7719354277        3.1777513298
  H        36.5888823739       18.8230539028        1.8835899977
  H        37.2336047584       17.3566703241        6.7971718045
  H        35.1479511405       26.6871627894        3.3981502669
  H        28.5124499250       21.0846870255       15.8907154136
  H        25.7561572401       19.6300857009        4.1669872945
  H        23.5706949994       19.6864668655        5.3815516644
  H        22.2993410912       16.1822178823        3.2372232096
  H        24.4843320108       16.1495380666        2.0177248259
  H        23.7020353327       17.6598468338        6.8022006691
  H        29.0066485784       21.7238074046        1.7475480098
  H        29.1586645967       21.7470531621       14.5509343944
  H        32.0812335724       18.5675251876        3.0023917881
  H        27.4101732737       19.0822956993        0.0863780059
  H        14.8495180839       19.6489561482        4.1442806330
  H        17.0119970290       19.6955194697        5.3874140055
  H        18.3024752104       16.1870519875        3.2604987207
  H        16.1359224128       16.1563615097        2.0169276236
  H        16.9214230286       17.6989013784        6.8532407018
  H        46.0913813511       15.4332791756        4.0646056778
  H        43.9652416172       15.3648422378        5.3683245611
  H        42.5420685858       18.8003484192        3.2060396724
  H        44.6685439583       18.8435459080        1.8913286326
  H        44.0180176366       17.3067053025        6.8296791898
  H        20.2909427962       17.9230062875        3.4269566872
  H        46.0424260183       15.3853221088       12.0287429570
  H        43.9128582093       15.3204236250       10.7320554481
  H        42.5201265047       18.7895067787       12.8593334795
  H        44.6558367481       18.8402335033       14.1577956089
  H        44.0063355008       17.2945972202        9.2686379604
  H        46.1987833758       26.6824074052       12.6182012919
  H        52.7410582351       21.0626100317        0.1997671156
  H        14.8789050575       19.6767987796       11.8946924447
  H        17.0796403281       19.7521809556       10.7146194749
  H        18.3356304137       16.2315979144       12.8415654743
  H        16.1368742871       16.1802483385       14.0312108313
  H        16.9421853575       17.7156368210        9.2906064929
  H        52.3221490187       21.6732017501       14.2893213618
  H        52.0130900677       21.7019645854        1.5007763701
  H        49.0670282654       18.6076850663       13.1991133594
  H        13.2472730979       19.0165514873       15.9721508664
  H        29.9439963107       12.4833795164        4.2467418915
  H        28.8880398977       10.5405564545        5.4120505971
  H        25.2548959950       11.1987895062        3.2077583561
  H        26.3310968577       13.1280413537        2.0347770321
  H        27.1651049467       11.6780253977        6.7936617248
  H        30.9979325299       22.7825298809        4.0074327159
  H        32.0105997053       24.6606348350        5.3115221213
  H        35.7006508457       24.1391372003        3.1661312483
  H        34.6690219826       22.2683925884        1.8618720894
  H        33.7034022253       23.5701841822        6.7545357458
  H        25.7223625255        8.5946481239        3.4041100009
  H        30.9515557358       22.6815746020       11.9025064589
  H        31.9681518687       24.5607515801       10.6107325444
  H        35.6054943080       24.1277386710       12.8654521032
  H        34.5675570747       22.2591944917       14.1640230520
  H        33.6784344750       23.5509201387        9.1958122885
  H        40.5957804082       17.0822571408       12.6485011103
  H        32.5071773227       14.1535483955        0.2651661309
  H        29.8823838138       12.5397198754       11.8918263789
  H        28.8561091258       10.6292623328       10.6567494492
  H        25.1936648357       11.1930365267       12.8400954398
  H        26.2417439851       13.0905977020       14.0865292057
  H        27.1529298203       11.6940541596        9.2328322981
  H        33.2895855458       14.1916749847       14.4284160469
  H        33.4041274621       14.4149601165        1.6074245170
  H        32.1291820771       18.5206120678       13.1639609496
  H        30.2102296711       14.1886573443        0.0788921467
  H        16.1187647237        2.9633289383        4.1352013043
  H        14.9536461686        4.8203907641        5.3279881146
  H        17.3656934325        7.6859940492        3.2146836406
  H        18.5143684526        5.8184130186        2.0148160655
  H        16.7538698298        5.7397815270        6.7766393797
  H        44.8282737318       32.1401958922        3.9819676312
  H        45.9375403271       30.3412607855        5.3113693333
  H        43.6821173106       27.3781361723        3.1576964843
  H        42.5994604170       29.1899668348        1.8151160764
  H        44.2303984343       29.4367322367        6.7739341533
  H        14.8509550846        8.5461459346        3.3684377321
  H        44.9000333107       32.2340178560       11.9267805297
  H        46.0248563562       30.4129292448       10.6472687691
  H        43.7630855929       27.4840843368       12.8399570412
  H        42.6453902288       29.3177258150       14.1190115126
  H        44.2685195661       29.4705173605        9.2129899403
  H        35.0670170610       26.6183594709       12.6270183066
  H        36.6050452283       35.1340732906        0.1857658366
  H        16.1439531777        3.0129641865       11.8986791371
  H        14.9743959855        4.8563421803       10.6829248697
  H        17.3956218097        7.7473201348       12.7505797136
  H        18.5426763726        5.8933266201       13.9782326987
  H        16.7649584758        5.7557106034        9.2141880470
  H        36.2786465289       34.4822597085       14.2682229104
  H        36.3809690719       34.2091671024        1.5047721975
  H        40.5797256200       33.2020934502       13.1485575919
  H        17.4708297059        1.9471870137       15.9689898644
  H        28.9944877525       19.3176511240        4.4813614387
  H        28.8502924988       18.5474929551       11.8386988679
  H        30.5068107445       15.6575011651       11.8663202894
  H        31.0565121122       15.5348342842        4.4534828004
  H        27.8364680381       17.7626375460        6.6002318089
  H        28.9810848615       15.5638960543        6.6392978893
  H        30.0314698982       19.8111818546        9.9799067692
  H        32.1296055528       16.0441266359        9.8818561109
  H        18.8536021926        0.8691129774        4.3404737558
  H        40.5278951148       35.2292138225       11.9470236826
  H        42.3239199992       34.4188928635       11.5856970491
  H        22.0879610440        0.6920623910        4.3566905439
  H        11.5970342054       18.7129974520        4.3874540840
  H        52.2647639387       18.4309427112       11.6724018972
  H        49.2545701632       16.4772994036       11.5798106307
  H        10.1506954924       15.7981898299        4.2977309522
  H        50.8497807861       17.6925026786       11.9491830593
  H        10.0462174155       17.3945516490        4.0571256786
  H        20.2147818623        0.0022937700        4.0471475328
  H        39.1835153737       36.1243065000       11.6812524371
 Ni        30.8124140738       17.7459978967       10.8297236383
 Ni        30.8189806084       16.4780998660        7.9091076819
 Ni        29.7178746375       18.5771638120        7.9105243731
 Ni        30.0177245048       17.4297525976        5.3290788511
  O        10.6499028506       14.3651532104       13.4807175782
  O        12.6131576293       14.6575280934       14.5787948318
  O        49.1477588281       16.8459892736       15.9846656852
  O        50.3500893653       20.9360690293       13.6431225209
  O        48.3484680434       20.5932659337       14.6608827625
  O        11.0514431352       17.0539811815       14.4955430521
  O        50.3209745530       20.8816733531        2.4119207928
  O        48.3467406328       20.5866712993        1.3322194481
  O        49.5435928586       18.2484586360        2.0733643709
  O        12.3589078773       18.6245877875        0.0048479782
  O        48.6931926019       14.1486165581       14.7461738524
  O         8.2098682569       14.2103807371        1.3276490779
  O        10.7353369708       14.5067269810        2.6694610222
  O        12.5718092257       14.5828562894        1.3336037721
  O        22.8449621114        2.0439216465       13.4819171773
  O        21.6056502678        3.5926225463       14.5843523482
  O        42.0581500397       34.1373194471       15.9737740427
  O        37.9814851011       33.1375363515       13.5675505014
  O        39.2179722304       31.5759493595       14.6613315791
  O        20.3084251746        1.0395970960       14.4969445322
  O        38.0250604832       33.1866933629        2.4199203335
  O        39.2192080447       31.5839626836        1.3314959491
  O        40.6523104046       33.7693808817        2.0653129720
  O        18.2555481496        1.3760608550        0.0018781956
  O        44.6222214108       35.1005537527       14.7536175947
  O        24.2054141057       -0.0000015761        1.3259195279
  O        22.7531179628        2.0576882488        2.5889311256
  O        21.6247293171        3.5963619885        1.3482162154
  O        27.5007169527       18.7492047075       13.4841762242
  O        26.7618844394       16.9375433544       14.6483568900
  O        30.6669890129       19.4082429195        0.0693654273
  O        33.5807837245       16.2796473289       13.6596406604
  O        34.2746818779       18.1665535969       14.7319294277
  O        29.5723597304       17.0640547513       14.5776361287
  O        33.5598238860       16.3399323046        2.4193368771
  O        34.3014534435       18.2408104591        1.4122598760
  O        31.6507113143       18.3171086153        2.1676401015
  O        30.3186471251       15.1537696304        0.0882491539
  O        28.5560904629       21.0350696121       14.8326889899
  O        28.5151505240       20.9558277164        1.4100084139
  O        27.4584942439       18.6796405680        2.6663587114
  O        26.6940943821       16.9306060331        1.4185213905
  O        13.1488588492       18.6929834321        2.5925899350
  O        13.9195298776       16.9162608814        1.4102200894
  O        50.5957966173       19.3501509384        0.0256512020
  O        47.6832397550       16.3269132732        2.4222490144
  O        46.9506433875       18.1755337573        1.3305305449
  O        11.0696180779       17.0156177090        1.4947802330
  O        47.6757605880       16.3358194366       13.6478373477
  O        46.9260236465       18.2357656876       14.6586287449
  O        49.5684332299       18.3177485186       13.9772091634
  O        10.3185793079       15.1002605542        0.0021992147
  O        52.6707418766       21.0278930117        1.2469326079
  O        12.1467968424       20.8911749863       14.6681213002
  O        13.1079964389       18.6136991792       13.3205181247
  O        13.9572459741       16.9870314442       14.6602661960
  O        29.9626274418       14.5000906884        2.7476992323
  O        28.0804072044       14.6568810576        1.4917609195
  O        32.0818723265       16.8685123257        0.0874848912
  O        30.9670350490       20.9545884603        2.4138636969
  O        32.9479657218       20.6009201906        1.3439361961
  O        29.5635997298       17.0819095596        1.5828924029
  O        30.9046446397       20.8746301039       13.5790039417
  O        32.8793768505       20.5851397236       14.6625032212
  O        31.6873119473       18.2510535996       13.9874387291
  O        28.2936737700       18.6796430342        0.0796576862
  O        32.4891665298       14.2149148284        1.3375770394
  O        32.3994974433       14.2152456638       14.8170485770
  O        29.8747805063       14.5067651675       13.4079021486
  O        28.0415645749       14.5870748498       14.7447663811
  O        17.8892532152        1.9666801243        2.6679347994
  O        18.9563054664        3.5271697421        1.4130935000
  O        39.1687007294       34.1388159294        0.0022460016
  O        43.2802276772       33.0589502496        2.3367816057
  O        42.0345072654       31.5064711328        1.2466907617
  O        20.3177679455        1.0367937419        1.4852714354
  O        43.2760873691       33.1826165402       13.5698050410
  O        42.0052745024       31.5841102814       14.5778535740
  O        40.5789762536       33.7749420963       13.9305797502
  O        22.3673292311        1.3846781358        0.0029973835
  O        36.6727173360       35.0998359388        1.2383701730
  O        16.4455361256        0.0642479265       14.6631446863
  O        17.9364670282        2.0433826487       13.3212804621
  O        18.9190659292        3.5931481932       14.6608559766
  O        29.7727117637       18.7590017603       12.0804961184
  O        29.8087928220       18.9745131457        4.0660862940
  O        31.1806482470       16.3351745380       12.0739580203
  O        31.2886103753       16.4065879727        4.0806361974
  O        31.7289411637       16.8444346382        9.4937939374
  O        29.9114661833       15.7430730256        6.4218358329
  O        30.4586081024       19.0440587679        9.5562830042
  O        28.5580706968       18.3900329603        6.4251848281
  O        39.4568238861       35.2437492649       11.9968392188
  O        19.1415134609        0.0046942456        3.9956582971
  O        41.9698052903       35.1730317702       12.0821422135
  O        21.6914095393       -0.0692535925        3.9010245578
  O        51.3649442069       18.6142912186       12.0003527252
  O        10.7511768301       18.7472100753        3.9100290171
  O        50.0792483686       16.4128048558       12.0866724280
  O         9.5247594818       16.4830158322        3.9963313947
 Zr         9.2963297181       16.0529201126       14.1772796753
 Zr        49.8360240018       16.0068437301        1.7516442888
 Zr        22.0731703388        0.0296773778       14.1839719851
 Zr        42.4607971351       35.1530905031        1.8059914233
 Zr        29.6252607748       19.0853199876       14.2768426801
 Zr        29.5824473964       19.1826021580        1.8937738339
 Zr        11.0376169227       19.0521129917        1.8328071852
 Zr        11.0433594849       19.1549450015       14.2461544546
 Zr        31.3366711830       16.1138719400        1.9146596078
 Zr        31.3955368604       16.0237505177       14.2810508213
 Zr        18.6010766306       -0.0015172464        1.7684433242
 Zr        18.5063401983       -0.0080869674       14.2086030752
 Zr        12.3016095548       16.3236575148       15.9851865695
 Zr        48.6154794126       18.8329397614        0.0154161955
 Zr        20.3151497329        2.4731804475       15.9854724260
 Zr        40.6432725234       32.6866569719       15.9729941507
 Zr        28.3530531666       16.3525254194        0.0893141142
 Zr        32.6267408004       18.8383296188        0.0608584781
  O        28.8897088942       20.8810606046        7.8987919620
  H        29.5739322782       21.3935303931        7.4354426927
  H        28.3569286836       20.4853020772        7.1790383526
  O        32.1049473587       14.4333554918        7.8158665312
  H        32.9149970241       14.6564334319        7.3258952445
  H        31.4452876354       14.2497562727        7.1162151123
