     572
 i =      115, E =     -4746.7825456737
  C        11.8585378029       14.0536028527       13.7364882433
  C        12.4560623669       12.8905558882       13.0182119914
  C        11.7045220029       12.1719297949       12.0762189731
  C        12.2808935245       11.1097153331       11.3838541892
  C        13.6213227847       10.7396105051       11.6119161759
  C        14.3542978860       11.4428353416       12.5857829768
  C        13.7814085208       12.5078088121       13.2772975269
  C        14.2609402119        9.6490001934       10.8385169515
  C        14.2564471792        9.6570076590        9.4168115567
  C        13.7433134751       10.7591392237        8.6628886392
  C        49.1264882354       21.2333266491       13.8746766319
  C        48.5496822933       22.4011137019       13.1475388923
  C        49.2998470794       23.0686365294       12.1667641181
  C        48.7329154257       24.1077297913       11.4335317973
  C        47.4022542931       24.5091431137       11.6618947372
  C        46.6711112242       23.8599934404       12.6750910576
  C        47.2335632569       22.8151199492       13.4044937844
  C        46.7721406368       25.5868963369       10.8645969637
  C        46.7614153642       25.5574163418        9.4428311447
  C        47.2613662596       24.4423236811        8.6993510540
  C        14.8604577365        8.5706991990        8.7035543617
  C        14.8915976880        8.5969687768       11.5151607448
  C        49.1130618574       21.2034492654        2.1504569025
  C        48.5277078497       22.3647337016        2.8776021800
  C        49.2670766275       23.0257219535        3.8702477965
  C        48.6907332113       24.0602618427        4.6016921245
  C        47.3601867905       24.4567665712        4.3637069436
  C        46.6395841521       23.8115245192        3.3405343017
  C        47.2131427757       22.7756108724        2.6087635574
  C        46.7218205112       25.5317930047        5.1547185241
  C        46.7337407884       25.5282646089        6.5764172915
  C        47.2491507009       24.4290415378        7.3327989626
  C        40.6193197229       17.0865190487        7.3156155696
  C        40.6296472524       17.1003777450        4.5058538795
  C        11.8828126133       14.0865618892        2.2905688083
  C        12.4721224589       12.9106176105        2.9947338498
  C        11.7147085485       12.1776569157        3.9211022297
  C        12.2812715946       11.0951923848        4.5895484421
  C        13.6199782174       10.7212207105        4.3574911804
  C        14.3578034767       11.4364840330        3.3963450128
  C        13.7923983195       12.5176614506        2.7236422252
  C        14.2536518064        9.6245285421        5.1279313242
  C        14.2525913755        9.6446222540        6.5497727332
  C        13.7427563265       10.7535934234        7.2968418161
  C        22.5103295411        3.2443686840       13.7466186375
  C        23.2216257867        4.3499153846       13.0432776222
  C        24.2188323487        4.0699024639       12.0973898659
  C        24.8437290972        5.1092106773       11.4129060298
  C        24.4867783158        6.4507949678       11.6539532013
  C        23.5168837272        6.7224130984       12.6361688213
  C        22.8877008470        5.6849149499       13.3192823265
  C        25.0926051387        7.5574590364       10.8784078427
  C        25.0719405134        7.5490044959        9.4566050584
  C        24.3758920299        6.5474540969        8.7077603879
  C        38.3015204772       31.9287667139       13.8444539081
  C        37.5698276352       30.8396579410       13.1367008592
  C        36.6071467310       31.1439825270       12.1619589501
  C        35.9877299821       30.1242174903       11.4448414258
  C        36.3163984311       28.7747258657       11.6800230687
  C        37.2489785190       28.4778426760       12.6918212037
  C        37.8722057484       29.4962837369       13.4082405873
  C        35.7142964925       27.6835707212       10.8814431465
  C        35.7446454802       27.7010644772        9.4599362810
  C        36.4464312795       28.7070107181        8.7236260163
  C        25.6962823564        8.6195007036        8.7385515715
  C        25.6847181881        8.6342394073       11.5507832346
  C        38.3285514036       31.9623917103        2.1613275353
  C        37.6061863235       30.8904972499        2.9031719978
  C        36.6762069752       31.2008634006        3.9072360984
  C        36.0646900115       30.1835581378        4.6370356573
  C        36.3690991276       28.8305663789        4.3865082731
  C        37.2768171315       28.5302522793        3.3523342231
  C        37.8902873160       29.5439651714        2.6235769105
  C        35.7604223753       27.7320829130        5.1705413637
  C        35.7680472468       27.7261092033        6.5925926225
  C        36.4572463049       28.7192599455        7.3570497343
  C        46.1357884648       26.6209366358        7.2865348599
  C        46.0877178953       26.5800429523        4.4786417366
  C        22.4631034695        3.2556579543        2.2613120836
  C        23.1629575979        4.3639850143        2.9804651840
  C        24.1704977542        4.0766827657        3.9150994925
  C        24.8035731397        5.1059458921        4.6080360245
  C        24.4491305311        6.4521982875        4.3892207203
  C        23.4650699948        6.7328988544        3.4224895084
  C        22.8276539820        5.7038788366        2.7297803134
  C        25.0807293783        7.5495720557        5.1646079457
  C        25.0668825876        7.5441225383        6.5873661178
  C        24.3714710807        6.5463799003        7.3410661136
  C        26.6117239667       17.8578216317       13.7813876021
  C        25.3054076973       17.9028328352       13.0572048334
  C        25.0409452574       18.9050937131       12.1101389569
  C        23.8295847547       18.9219142764       11.4215287775
  C        22.8451349699       17.9413314906       11.6597765447
  C        23.1049491314       16.9624706685       12.6376389613
  C        24.3189090933       16.9390456117       13.3226375215
  C        21.5729655014       17.9267235664       10.8940844808
  C        21.5749905988       17.9088232444        9.4716887214
  C        22.7815653224       17.7872725459        8.7125581630
  C        34.4360718048       17.1965674409       13.9120281885
  C        35.7286268651       17.1435297425       13.1686295691
  C        35.9329578389       16.1721621220       12.1762147478
  C        37.1133141962       16.1566642920       11.4387223653
  C        38.1222994254       17.1109991004       11.6734686816
  C        37.9210405412       18.0626393348       12.6914596926
  C        36.7376770407       18.0838068540       13.4261793243
  C        39.3754216368       17.1166101782       10.8843035705
  C        39.3675409431       17.1211166587        9.4621622637
  C        38.1586677712       17.2416135689        8.7068853380
  C        20.3292181867       17.9280454623        8.7617828257
  C        20.3478446033       17.9282157561       11.5753824580
  C        34.4385163046       17.2374527277        2.1958783335
  C        35.7391886173       17.1355940107        2.9175943249
  C        35.9417800948       16.1593126557        3.9044261518
  C        37.1325374180       16.1278356301        4.6261534209
  C        38.1496236613       17.0714248249        4.3813847307
  C        37.9530396865       18.0200688855        3.3602276258
  C        36.7618620706       18.0567841549        2.6417943658
  C        39.3994867317       17.0873504862        5.1738652089
  C        39.3798495219       17.1064316833        6.5954593360
  C        38.1646752267       17.2328934518        7.3401504390
  C        35.1408181538       26.6444277504        7.2955927017
  C        35.1731736763       26.6603442148        4.4865034223
  C        26.5734178288       17.8281735132        2.3308085035
  C        25.2588777134       17.8727295562        3.0384343280
  C        24.9953774117       18.8767718840        3.9823677645
  C        23.7774370146       18.9024327656        4.6561424142
  C        22.7937137558       17.9238603448        4.4095048560
  C        23.0518973710       16.9443498951        3.4335590381
  C        24.2705589377       16.9167239864        2.7581015384
  C        21.5295663362       17.9057985672        5.1816196461
  C        21.5524118223       17.8961028404        6.6031348567
  C        22.7702481427       17.7807637114        7.3462648516
  C        14.0465987748       17.8290697689        2.2935776321
  C        15.3516850005       17.8866586270        3.0184228643
  C        15.6089190903       18.8906966817        3.9649377624
  C        16.8181533303       18.9118879442        4.6575158207
  C        17.8043891774       17.9318635517        4.4255870430
  C        17.5520441036       16.9521206896        3.4467753668
  C        16.3422226293       16.9263741140        2.7558609803
  C        19.0732507326       17.9144490604        5.1951766304
  C        19.0709413804       17.9105918560        6.6176695823
  C        17.8631984386       17.8121858313        7.3778379171
  C        46.8018793391       17.2161404965        2.1623131641
  C        45.5085921501       17.1456381311        2.9027201286
  C        45.3040841075       16.1623148468        3.8833960287
  C        44.1201256152       16.1340468582        4.6157912261
  C        43.1090632307       17.0888549015        4.3907847933
  C        43.3102048348       18.0508006639        3.3821290663
  C        44.4950835197       18.0830402084        2.6503739953
  C        41.8558381523       17.0928958488        5.1811599704
  C        41.8645348136       17.0969540228        6.6035249408
  C        43.0749340717       17.1952839289        7.3595084936
  C        20.3171698344       17.9206789649        7.3269788469
  C        20.2980151504       17.8950121429        4.5140032304
  C        46.7846610590       17.2321233937       13.8814242347
  C        45.4832241352       17.1274311092       13.1620504394
  C        45.2656800862       16.1281859148       12.2010158373
  C        44.0783533251       16.0999256224       11.4734269396
  C        43.0780031578       17.0680815383       11.6885264695
  C        43.2867499631       18.0381753185       12.6869099985
  C        44.4749570139       18.0725659031       13.4100981800
  C        41.8302954048       17.0865947534       10.8929165328
  C        41.8516413245       17.0924970504        9.4714785504
  C        43.0689030240       17.1901371935        8.7263559144
  C        46.1535173030       26.6373544142        8.7210769391
  C        46.1620604262       26.6559359921       11.5307269286
  C        14.0443224706       17.8307933648       13.7033864461
  C        15.3646497366       17.9030544852       13.0114101180
  C        15.6394222544       18.9196425130       12.0846824389
  C        16.8681108444       18.9554581515       11.4292814366
  C        17.8489245484       17.9737019575       11.6751864886
  C        17.5807865981       16.9854753819       12.6396444007
  C        16.3542097490       16.9492736333       13.2985981994
  C        19.1163144389       17.9483526582       10.9070064674
  C        19.0935329391       17.9269109393        9.4855542961
  C        17.8741761066       17.8194930404        8.7438646271
  C        28.7956954358       14.1160113227        2.4023961981
  C        28.1948791560       12.9378845907        3.0916303838
  C        28.9201524138       12.2024673573        4.0404495359
  C        28.3280486534       11.1194715307        4.6861135484
  C        26.9962955986       10.7492067488        4.4088571942
  C        26.2933704000       11.4659425334        3.4238009256
  C        26.8835115753       12.5474711812        2.7753120626
  C        26.3301957134        9.6645188467        5.1664603064
  C        26.3097942067        9.6918595397        6.5873365489
  C        26.8054020785       10.8072777097        7.3344401274
  C        32.1803257647       21.2404649960        2.1508350168
  C        32.7747741252       22.4072022170        2.8673489024
  C        32.0278394351       23.0836511044        3.8440538845
  C        32.5988293657       24.1227621651        4.5721108648
  C        33.9323600725       24.5136823621        4.3441255062
  C        34.6615097550       23.8565062141        3.3352668871
  C        34.0930423538       22.8115728162        2.6092354017
  C        34.5606889719       25.5888072307        5.1451368424
  C        34.5535680975       25.5587113838        6.5668141858
  C        34.0522842028       24.4393334543        7.3033382735
  C        25.6986229407        8.6133137038        7.3039717462
  C        25.6986637958        8.6118489725        4.4907720393
  C        32.1175046880       21.1931967087       13.8410580774
  C        32.7023388175       22.3519887118       13.1055078008
  C        31.9704978806       23.0072205941       12.1033809000
  C        32.5459066577       24.0478203554       11.3785918653
  C        33.8683220976       24.4605055882       11.6349173962
  C        34.5819813548       23.8190911230       12.6653214378
  C        34.0101196297       22.7755037680       13.3881019002
  C        34.5065426977       25.5455559038       10.8548759502
  C        34.5254861940       25.5366376475        9.4328235571
  C        34.0386038214       24.4287294021        8.6699305599
  C        40.6124836374       17.0892814004        8.7505356858
  C        40.6007332466       17.1160639155       11.5607355706
  C        28.7150956365       14.0923925987       13.7830387381
  C        28.1084775131       12.9417423836       13.0516804015
  C        28.8480695555       12.2360813414       12.0900969879
  C        28.2698477504       11.1733799490       11.4003549369
  C        26.9359415192       10.7902443962       11.6461612657
  C        26.2143557231       11.4816258989       12.6373358253
  C        26.7912999562       12.5440261312       13.3301999863
  C        26.2973519202        9.6971304008       10.8747877181
  C        26.2941004423        9.7089922066        9.4530756936
  C        26.7957927200       10.8167204831        8.7000318541
  C        18.1353854248        3.1808741013        2.3222330188
  C        17.4059703959        4.2781675310        3.0207916273
  C        16.3905796702        3.9997580035        3.9486409975
  C        15.7428263598        5.0397111645        4.6121725461
  C        16.0943820788        6.3834669480        4.3721870740
  C        17.0833482994        6.6530264968        3.4080027486
  C        17.7324600873        5.6157099103        2.7429250531
  C        15.4701287032        7.4911901564        5.1352506612
  C        15.4856147591        7.4906358296        6.5569647201
  C        16.1872521171        6.4970851407        7.3101478907
  C        42.9458629373       31.8594097786        2.0779794331
  C        43.6461904079       30.7717987640        2.8219195430
  C        44.5920040267       31.0931003491        3.8077404127
  C        45.1977050895       30.0875402981        4.5553664572
  C        44.8709986551       28.7344999535        4.3407348438
  C        43.9448311685       28.4201750759        3.3278351119
  C        43.3360168554       29.4253316323        2.5798131639
  C        45.4886620068       27.6552445137        5.1439188924
  C        45.4930349225       27.6810216976        6.5656051137
  C        44.8059550357       28.6890854756        7.3122070507
  C        14.8566778536        8.5631534794        7.2693243515
  C        14.8747094744        8.5628886908        4.4566639081
  C        42.9464400492       31.9614483653       13.8038456039
  C        43.6915740776       30.8853907329       13.0903164605
  C        44.6564131582       31.1912882941       12.1182378389
  C        45.2778959405       30.1716961624       11.4005088845
  C        44.9538483165       28.8213878115       11.6378931850
  C        44.0200236266       28.5237226343       12.6483535236
  C        43.3917961999       29.5404948179       13.3605466964
  C        45.5629627893       27.7240293007       10.8526536368
  C        45.5334977481       27.7174859597        9.4313542265
  C        44.8272105888       28.7077291716        8.6783897361
  C        35.1277421874       26.6324488910        8.7303717022
  C        35.1126923961       26.6053813062       11.5402402418
  C        18.1485545745        3.2468556188       13.7015833764
  C        17.4298947949        4.3437779359       12.9923260094
  C        16.4149450160        4.0524970849       12.0684901815
  C        15.7666306853        5.0831243305       11.3930757853
  C        16.1210199973        6.4283842896       11.6160545826
  C        17.1120770188        6.7117697810       12.5736479518
  C        17.7597439447        5.6828583907       13.2534297166
  C        15.4905926203        7.5241129048       10.8435922179
  C        15.4966625176        7.5075890135        9.4224528057
  C        16.1934867821        6.5059276702        8.6757534974
  H        10.6724928296       12.4662945072       11.8989697263
  H        11.6946678822       10.5514447779       10.6570997830
  H        15.3911811915       11.1679053197       12.7678492198
  H        14.3506708921       13.0707575257       14.0131001105
  H        13.3761972788       11.6312213870        9.1961969308
  H        50.3226314504       22.7487520765       11.9822109635
  H        49.3194387408       24.6231387551       10.6760852158
  H        45.6414550325       24.1604152768       12.8579267691
  H        46.6623341755       22.2896515723       14.1662715829
  H        47.6296694847       23.5758443268        9.2410318681
  H        14.8716838584        8.5880780788       12.6034626843
  H        50.2872087470       22.7030578369        4.0649832820
  H        49.2691589435       24.5759053155        5.3650397240
  H        45.6100048834       24.1083773658        3.1518030827
  H        46.6520744006       22.2531472967        1.8375820064
  H        47.6077462816       23.5518389151        6.8019152147
  H        40.6329716337       17.0642010739        3.4180898962
  H        48.6869288534       14.0949896478       15.7948506332
  H        10.6813080570       12.4669033901        4.0986585847
  H        11.6895105272       10.5249629317        5.3024050719
  H        15.3931197617       11.1583349217        3.2101646065
  H        14.3645881629       13.0868220137        1.9948310499
  H        13.3758238907       11.6221522108        6.7581861978
  H        47.9299701993       14.2185983876        1.7157501129
  H        47.7799098149       14.3735559634       14.4900048345
  H        49.0821157580       18.5517826585        2.8720045111
  H        10.4155653986       14.1344200976        0.0038541427
  H        24.4822207550        3.0314210542       11.9092816694
  H        25.6178759049        4.8915900229       10.6802621104
  H        23.2334247591        7.7551361223       12.8283898976
  H        22.1170681145        5.8851664299       14.0596744198
  H        23.8139097165        5.7897077375        9.2459651264
  H        36.3692999199       32.1872720768       11.9683592023
  H        35.2410871095       30.3638444141       10.6909348115
  H        37.5102023694       27.4386433016       12.8807199018
  H        38.6178189668       29.2745754944       14.1681064650
  H        37.0085489191       29.4585684277        9.2702369044
  H        25.7151674096        8.6179309418       12.6387597255
  H        36.4535062029       32.2454042144        4.1129390733
  H        35.3378407800       30.4295121170        5.4080046478
  H        37.5235220890       27.4896322492        3.1524113531
  H        38.6134203283       29.3170499666        1.8440143594
  H        37.0288399455       29.4797291726        6.8328688718
  H        46.1088020699       26.5872371231        3.3905987588
  H        44.6680609205       35.1160179094       15.8088399089
  H        24.4478295297        3.0380403855        4.0804940822
  H        25.5877297343        4.8757171921        5.3261757417
  H        23.1796295953        7.7677101752        3.2444524215
  H        22.0519940515        5.9180049257        1.9981070905
  H        23.8055907004        5.7882796271        6.8074070035
  H        44.9530940341       34.3896766314        1.6998101462
  H        44.9010033274       34.2065346094       14.4854769959
  H        40.6654213172       33.2085361161        2.8579399739
  H        23.1506264419        1.9574391177        0.0096329540
  H        25.7950372094       19.6682523847       11.9311134176
  H        23.6292354777       19.7047653657       10.6930812694
  H        22.3561352154       16.1969635727       12.8308033147
  H        24.5304056022       16.1696869386       14.0616651758
  H        23.7219568382       17.6677681335        9.2428467370
  H        35.1485390417       15.4421743211       11.9915817124
  H        37.2696945212       15.3968175651       10.6762214946
  H        38.6912845611       18.8084634930       12.8767545712
  H        36.5660706220       18.8338530110       14.1947930686
  H        37.2204293362       17.3749950975        9.2381232767
  H        20.3533267955       17.9659462840       12.6633301498
  H        35.1479392650       15.4435234186        4.1048858431
  H        37.2871018924       15.3684920399        5.3895282984
  H        38.7308870900       18.7554191003        3.1653238780
  H        36.5902229484       18.8085709060        1.8753020500
  H        37.2307510624       17.3590041520        6.7999364062
  H        35.1461625316       26.6867333953        3.3988009054
  H        28.5092200646       21.0906945897       15.8922454090
  H        25.7579282308       19.6296691800        4.1685853080
  H        23.5721437707       19.6858188807        5.3825465486
  H        22.3006742733       16.1819811558        3.2374743845
  H        24.4858941387       16.1491068166        2.0186101973
  H        23.7019304981       17.6563730904        6.8025200733
  H        29.0093411090       21.7229525147        1.7476838886
  H        29.1610395677       21.7466545196       14.5514434921
  H        32.0653416529       18.5601299354        3.0106542207
  H        27.4083062237       19.0843912213        0.0933636056
  H        14.8506009577       19.6499689552        4.1427499908
  H        17.0136533115       19.6966954706        5.3851183602
  H        18.3029556905       16.1874440498        3.2587026487
  H        16.1357583412       16.1566056252        2.0160457543
  H        16.9210499280       17.6980662778        6.8496047142
  H        46.0904974781       15.4336779996        4.0656232174
  H        43.9641452698       15.3641037988        5.3682484099
  H        42.5382603902       18.7962801255        3.2025926767
  H        44.6650523335       18.8408676494        1.8890803582
  H        44.0156016919       17.3068662642        6.8279083032
  H        20.2928314386       17.9252370205        3.4258754909
  H        46.0424586952       15.3872291189       12.0262666300
  H        43.9129023141       15.3234381189       10.7297310155
  H        42.5202111882       18.7906754697       12.8599793844
  H        44.6557873086       18.8403031344       14.1584186850
  H        44.0050943725       17.2967025916        9.2666940621
  H        46.1985553770       26.6822912050       12.6181880366
  H        52.7409690552       21.0625553314        0.1997568318
  H        14.8803209553       19.6753209115       11.8949437890
  H        17.0809107984       19.7467727583       10.7137027913
  H        18.3296531135       16.2210479353       12.8364819613
  H        16.1312604767       16.1739289084       14.0275089920
  H        16.9402791171       17.7110589262        9.2871634008
  H        52.3217980818       21.6730856788       14.2894365422
  H        52.0128300258       21.7017813025        1.5007316096
  H        49.0667635195       18.6077777999       13.1992491270
  H        13.2471239650       19.0165905145       15.9720547821
  H        29.9454990013       12.4931002587        4.2578084273
  H        28.8924572074       10.5474221427        5.4193667967
  H        25.2643339881       11.1906108231        3.2020273223
  H        26.3383601454       13.1211186230        2.0298222345
  H        27.1679238112       11.6769142655        6.7948100406
  H        31.0039898420       22.7678688795        4.0284935848
  H        32.0153882325       24.6455862518        5.3267646604
  H        35.6937623708       24.1489302208        3.1539385803
  H        34.6621335813       22.2780696166        1.8514006467
  H        33.7045983235       23.5672811669        6.7567745495
  H        25.7325568158        8.5923259980        3.4028663163
  H        30.9535553187       22.6800408596       11.8999668259
  H        31.9720284311       24.5574498651       10.6077717595
  H        35.6057575018       24.1262573166       12.8686811814
  H        34.5665695503       22.2584695018       14.1663252790
  H        33.6812622074       23.5476593529        9.1954880020
  H        40.5961643645       17.0848107700       12.6486311102
  H        32.5087688307       14.1518842123        0.2661036378
  H        29.8792115468       12.5286846453       11.9051075097
  H        28.8506975424       10.6212081136       10.6647255509
  H        25.1826928331       11.1974999164       12.8345730183
  H        26.2315503223       13.0929088992       14.0839082247
  H        27.1493067369       11.6940673988        9.2336845034
  H        33.2906017732       14.1945646847       14.4294635643
  H        33.4032796746       14.4126170398        1.6102008738
  H        32.1250061558       18.5239463798       13.1635427893
  H        30.2130964128       14.1868624578        0.0891196937
  H        16.1187934240        2.9632198124        4.1352742314
  H        14.9536027127        4.8202521045        5.3280597844
  H        17.3653841460        7.6859453051        3.2145493794
  H        18.5141239893        5.8183503115        2.0146737654
  H        16.7537531026        5.7397020853        6.7766501067
  H        44.8284653440       32.1401609535        3.9817800236
  H        45.9377371087       30.3412210604        5.3111692909
  H        43.6817481433       27.3781539907        3.1580146029
  H        42.5990916567       29.1899507395        1.8154590285
  H        44.2304614957       29.4367412577        6.7738972499
  H        14.8506953633        8.5459728125        3.3684509512
  H        44.9001450430       32.2339531575       11.9269613850
  H        46.0249522648       30.4128666019       10.6474062137
  H        43.7626807858       27.4840287592       12.8396096528
  H        42.6450122111       29.3176346521       14.1186936607
  H        44.2685426683       29.4705108888        9.2129555246
  H        35.0695182221       26.6163974783       12.6277142440
  H        36.6049928458       35.1339906350        0.1857854708
  H        16.1440650418        3.0128938403       11.8985777533
  H        14.9744839223        4.8562290082       10.6828057646
  H        17.3952592064        7.7472740359       12.7508365074
  H        18.5423083730        5.8932749562       13.9785393331
  H        16.7648697189        5.7556553031        9.2142013798
  H        36.2786571963       34.4821190622       14.2683014277
  H        36.3808164040       34.2091989666        1.5049063023
  H        40.5795272160       33.2018602847       13.1487541369
  H        17.4708018485        1.9469823819       15.9689732161
  H        29.1217200562       19.4534857523        4.5498944427
  H        28.7691060165       18.5107811071       11.9441807359
  H        30.4242246246       15.6182824301       11.9332209486
  H        31.1041748369       15.6149216462        4.5206554557
  H        27.9903619127       17.7445909663        6.5544959223
  H        29.0676793392       15.6701337357        6.5874580802
  H        30.0277952106       19.7405173391       10.1258788466
  H        32.0247669910       16.0524356218       10.0464876004
  H        18.8534778137        0.8690941377        4.3404236180
  H        40.5278867976       35.2290326239       11.9470111256
  H        42.3232495743       34.4178921284       11.5859952406
  H        22.0879556639        0.6921111870        4.3566164548
  H        11.5970872612       18.7128284840        4.3873647229
  H        52.2648415229       18.4308947007       11.6725197816
  H        49.2548503131       16.4773416509       11.5797307548
  H        10.1503029526       15.7982147258        4.2977825152
  H        50.8497853616       17.6924326970       11.9492104084
  H        10.0459703675       17.3945335837        4.0570976291
  H        20.2145635020        0.0022382837        4.0471892432
  H        39.1835535879       36.1244342246       11.6813522240
 Ni        30.7404348028       17.7322339409       10.9096129334
 Ni        30.8150458452       16.4286699140        7.9977245081
 Ni        29.6714710748       18.5522300713        8.0773758226
 Ni        29.9344978499       17.4242657726        5.2426532436
  O        10.6498627752       14.3651622282       13.4806848992
  O        12.6131321808       14.6575284567       14.5787929173
  O        49.1477291781       16.8460181938       15.9846873654
  O        50.3500822575       20.9361090515       13.6431755824
  O        48.3484635140       20.5932661240       14.6609157394
  O        11.0513196034       17.0540261349       14.4955154955
  O        50.3209899058       20.8816673151        2.4119004466
  O        48.3467321478       20.5867092623        1.3322149642
  O        49.5434914569       18.2484576287        2.0734106938
  O        12.3588079311       18.6245728110        0.0048684470
  O        48.6931711148       14.1486248341       14.7461558604
  O         8.2098199155       14.2104061751        1.3276750213
  O        10.7353147358       14.5067220012        2.6694544461
  O        12.5717893619       14.5828323779        1.3336015529
  O        22.8447985537        2.0436251234       13.4819191960
  O        21.6054317247        3.5924253878       14.5845703674
  O        42.0580700256       34.1372081836       15.9738255822
  O        37.9814997678       33.1373613870       13.5675611566
  O        39.2180529172       31.5759933762       14.6614260754
  O        20.3083556523        1.0395273613       14.4969141965
  O        38.0249791015       33.1865193575        2.4199460061
  O        39.2191279482       31.5839032387        1.3315879661
  O        40.6522937984       33.7693032071        2.0653557388
  O        18.2555737498        1.3759353855        0.0018983685
  O        44.6222079213       35.1005387174       14.7536057073
  O        24.2054111205       -0.0000145333        1.3259265845
  O        22.7532071624        2.0576371360        2.5889258969
  O        21.6248850958        3.5965070381        1.3484339116
  O        27.4911793510       18.7489937654       13.4896579918
  O        26.7594741185       16.9348437189       14.6508194716
  O        30.6684247439       19.4098438550        0.0760808803
  O        33.5778623829       16.2809189919       13.6587775902
  O        34.2738949619       18.1661816587       14.7327301437
  O        29.5707098689       17.0616340828       14.5815734487
  O        33.5507548305       16.3400699128        2.4234275370
  O        34.3000841656       18.2375962136        1.4132405377
  O        31.6491692001       18.3175424355        2.1657642122
  O        30.3180796912       15.1525027109        0.0889175021
  O        28.5551291548       21.0379435339       14.8349624447
  O        28.5153752214       20.9559112420        1.4108486233
  O        27.4590198830       18.6801103985        2.6652090881
  O        26.6942060297       16.9304613182        1.4184020365
  O        13.1489435714       18.6929970571        2.5926228883
  O        13.9195175960       16.9162089638        1.4102045301
  O        50.5956422206       19.3501533596        0.0257208636
  O        47.6827616028       16.3270708328        2.4223188770
  O        46.9503448955       18.1755378116        1.3306958300
  O        11.0694114929       17.0156928596        1.4948399192
  O        47.6757168330       16.3358664747       13.6477640710
  O        46.9260780562       18.2357357584       14.6586327765
  O        49.5683400744       18.3177467187       13.9772104171
  O        10.3184982801       15.1002964845        0.0022028095
  O        52.6707278452       21.0279072325        1.2469408301
  O        12.1467939758       20.8911737865       14.6680886631
  O        13.1079810149       18.6136995300       13.3205287170
  O        13.9568956739       16.9868163415       14.6605156806
  O        29.9667544673       14.4998391665        2.7447608959
  O        28.0815527628       14.6568076694        1.4925443329
  O        32.0797647404       16.8691141568        0.0895236836
  O        30.9650474854       20.9527796205        2.4146252429
  O        32.9466135085       20.6011285646        1.3444390649
  O        29.5612652885       17.0838123722        1.5807989768
  O        30.9030134399       20.8736905144       13.5797940995
  O        32.8784023435       20.5846914821       14.6629868770
  O        31.6850048369       18.2495103188       13.9869773970
  O        28.2912898963       18.6805318831        0.0815998701
  O        32.4884252283       14.2154469205        1.3378448985
  O        32.4001134797       14.2144018308       14.8175899454
  O        29.8703562319       14.4998276792       13.4119894587
  O        28.0387787912       14.5864108916       14.7467640797
  O        17.8892011227        1.9666502968        2.6679257147
  O        18.9562710059        3.5271535574        1.4130896077
  O        39.1687126358       34.1387956101        0.0022622329
  O        43.2802173868       33.0589508613        2.3367721653
  O        42.0345261791       31.5064672642        1.2466976995
  O        20.3176755862        1.0366509152        1.4853712087
  O        43.2760876825       33.1825671158       13.5698205975
  O        42.0052824462       31.5840954322       14.5778803503
  O        40.5789588473       33.7748484343       13.9306651735
  O        22.3672424331        1.3846104647        0.0030604123
  O        36.6727063951       35.0998012800        1.2383824623
  O        16.4454971728        0.0641986851       14.6631373114
  O        17.9364467756        2.0433777165       13.3212750761
  O        18.9190561435        3.5931078483       14.6608778468
  O        29.6943512188       18.7582822058       12.1390352411
  O        29.8229357978       18.9658896671        4.0781664757
  O        31.1380281875       16.2703458357       12.0842044983
  O        31.1746416057       16.4849449991        4.0823319916
  O        31.7309788097       16.8578532761        9.5782725288
  O        29.9907664535       15.9157200420        6.3946358389
  O        30.5467860435       19.0630766120        9.6504818051
  O        28.7729577353       18.3105100568        6.4229223299
  O        39.4567672011       35.2438382196       11.9968712211
  O        19.1413924446        0.0046526187        3.9956840182
  O        41.9695068989       35.1724252450       12.0821025547
  O        21.6914300262       -0.0692453485        3.9010116246
  O        51.3650079191       18.6142756824       12.0003718316
  O        10.7511974699       18.7472117074        3.9100213254
  O        50.0795158788       16.4128754871       12.0866410651
  O         9.5244591504       16.4830796071        3.9962887149
 Zr         9.2959634080       16.0529376031       14.1772133817
 Zr        49.8355056705       16.0069298543        1.7517105337
 Zr        22.0729144816        0.0291917390       14.1841298900
 Zr        42.4606775219       35.1528392196        1.8059870819
 Zr        29.6196414532       19.0889085839       14.2955782159
 Zr        29.5798598349       19.1825074558        1.8898220740
 Zr        11.0372720346       19.0521756410        1.8327670734
 Zr        11.0429582554       19.1550041918       14.2463151214
 Zr        31.3302757850       16.1169319248        1.9041629004
 Zr        31.3931280279       16.0188948348       14.2831997502
 Zr        18.6008536371       -0.0019612624        1.7685101397
 Zr        18.5061980929       -0.0084327437       14.2085219867
 Zr        12.3010268379       16.3236135621       15.9852946310
 Zr        48.6149406194       18.8328712846        0.0155390820
 Zr        20.3149127704        2.4727274689       15.9857021163
 Zr        40.6429255690       32.6862416495       15.9730549971
 Zr        28.3478042099       16.3486250315        0.0895465253
 Zr        32.6304826907       18.8407944699        0.0621300663
  H        29.1502085427       20.2691132700        7.9411554498
  H        28.5482757821       19.9241211731        8.3274473512
  H        31.9834193516       15.1246635527        7.7333472717
  H        31.3908345409       14.7607790542        8.1259879220
