     572
 i =      287, E =     -4746.7670766464
  C        11.8586937461       14.0536264227       13.7364552291
  C        12.4562632028       12.8906742856       13.0181003579
  C        11.7045632399       12.1716995068       12.0765001907
  C        12.2809511174       11.1094929147       11.3841467730
  C        13.6215335248       10.7397520045       11.6118867411
  C        14.3547216832       11.4433677661       12.5852969379
  C        13.7818087488       12.5083503209       13.2767891841
  C        14.2610794276        9.6490756100       10.8385118975
  C        14.2564874977        9.6570131390        9.4168116267
  C        13.7433011088       10.7591285270        8.6629044506
  C        49.1266422257       21.2332498693       13.8746811358
  C        48.5498267566       22.4011547343       13.1475625844
  C        49.2999212317       23.0685493985       12.1666715059
  C        48.7330011445       24.1076859595       11.4334644163
  C        47.4023953707       24.5091748666       11.6619391863
  C        46.6713411936       23.8601838656       12.6752957773
  C        47.2337885350       22.8152763060       13.4046583181
  C        46.7722170973       25.5869126331       10.8646647907
  C        46.7612773793       25.5573576993        9.4429006488
  C        47.2611857690       24.4422483103        8.6994139422
  C        14.8604637046        8.5706905695        8.7035541121
  C        14.8918489354        8.5971226268       11.5151586747
  C        49.1131639952       21.2033920074        2.1504706818
  C        48.5277613467       22.3647335051        2.8776739352
  C        49.2670720205       23.0256080655        3.8704191260
  C        48.6907537344       24.0601949884        4.6018478631
  C        47.3602447048       24.4567497570        4.3637958545
  C        46.6397088868       23.8116488397        3.3404914527
  C        47.2132537120       22.7756983497        2.6087515770
  C        46.7218309250       25.5317799803        5.1547827694
  C        46.7335851542       25.5281997831        6.5764861686
  C        47.2489466832       24.4289502681        7.3328621742
  C        40.6225419835       17.0892775923        7.3156374359
  C        40.6329729325       17.1016120711        4.5062006529
  C        11.8829363876       14.0865767574        2.2905689559
  C        12.4723205444       12.9107581216        2.9948366882
  C        11.7147794092       12.1775204864        3.9208843523
  C        12.2813704556       11.0950670746        4.5893205492
  C        13.6202136734       10.7214211899        4.3575500600
  C        14.3582401098       11.4370520251        3.3968431895
  C        13.7928020093       12.5182210252        2.7241501425
  C        14.2538657348        9.6246810706        5.1279482499
  C        14.2526527866        9.6446544498        6.5497901643
  C        13.7427596103       10.7535977714        7.2968592365
  C        22.5101669960        3.2445606246       13.7466240267
  C        23.2205197010        4.3503641447       13.0434379095
  C        24.2170147443        4.0713417351       12.0965047521
  C        24.8405989668        5.1114136674       11.4120617530
  C        24.4830864139        6.4526445390       11.6542921945
  C        23.5140839033        6.7232369984       12.6376571992
  C        22.8861596674        5.6850377569       13.3206841692
  C        25.0873155394        7.5601105706       10.8788848123
  C        25.0653166705        7.5522133354        9.4571264787
  C        24.3698352157        6.5503505467        8.7081397312
  C        38.3021844693       31.9295305470       13.8442901754
  C        37.5712085205       30.8405033782       13.1353461758
  C        36.6077008947       31.1453995886       12.1617421633
  C        35.9884662838       30.1260227859       11.4439795948
  C        36.3184721411       28.7767158428       11.6777586726
  C        37.2524945437       28.4791237886       12.6878828871
  C        37.8753910754       29.4972508205       13.4049795765
  C        35.7149364802       27.6861835402       10.8797022716
  C        35.7423384741       27.7044798941        9.4582175333
  C        36.4442510789       28.7098235122        8.7211848209
  C        25.6878037091        8.6237977920        8.7392273411
  C        25.6794442094        8.6367594032       11.5515988752
  C        38.3283646370       31.9627541736        2.1609300881
  C        37.6046253707       30.8910652792        2.9024974755
  C        36.6730398167       31.2025356434        3.9046616893
  C        36.0597364337       30.1860102893        4.6340832555
  C        36.3641085950       28.8328680026        4.3848295347
  C        37.2735990706       28.5312861334        3.3526923691
  C        37.8888198814       29.5443457753        2.6243367400
  C        35.7537167261       27.7353524478        5.1690894162
  C        35.7620272542       27.7296926993        6.5910687687
  C        36.4532640992       28.7221026119        7.3546469964
  C        46.1356049123       26.6208576452        7.2866081960
  C        46.0878641578       26.5801169394        4.4787108842
  C        22.4627765257        3.2560558540        2.2615378144
  C        23.1611118463        4.3650822330        2.9807302376
  C        24.1683445228        4.0794843372        3.9162391015
  C        24.7996275596        5.1099242206        4.6090683933
  C        24.4437248468        6.4557226383        4.3894827902
  C        23.4600567447        6.7346850507        3.4218208109
  C        22.8244617267        5.7045441193        2.7291403076
  C        25.0734262124        7.5541357860        5.1650365889
  C        25.0590017884        7.5485851448        6.5878193055
  C        24.3649601168        6.5498164023        7.3414281943
  C        26.6232357389       17.8636809167       13.7774648891
  C        25.3148374641       17.9078635707       13.0531660387
  C        25.0508327690       18.9066263035       12.1026278391
  C        23.8377133309       18.9256373775       11.4168239782
  C        22.8502151872       17.9493351848       11.6601440617
  C        23.1096177471       16.9732833145       12.6408295001
  C        24.3252441197       16.9487744711       13.3235298759
  C        21.5767689851       17.9349487456       10.8956429766
  C        21.5771853971       17.9145809740        9.4730624382
  C        22.7830649562       17.7907936180        8.7133481229
  C        34.4431864848       17.1939505467       13.9170218303
  C        35.7377517033       17.1413512512       13.1753505348
  C        35.9422419106       16.1685333884       12.1843687101
  C        37.1206629888       16.1548409938       11.4437121024
  C        38.1277438182       17.1119701197       11.6748851318
  C        37.9268546608       18.0644747795       12.6920631209
  C        36.7449727807       18.0842015939       13.4294172080
  C        39.3797791604       17.1181202918       10.8844176785
  C        39.3714746508       17.1227887046        9.4624608704
  C        38.1624991840       17.2427415869        8.7073659449
  C        20.3311073465       17.9334205233        8.7635018184
  C        20.3515728484       17.9373348791       11.5771386400
  C        34.4457866040       17.2370791752        2.1914136080
  C        35.7475778925       17.1354516265        2.9118138012
  C        35.9444086922       16.1651295715        3.9055676069
  C        37.1336681902       16.1343855668        4.6296183859
  C        38.1539949772       17.0732429734        4.3804552018
  C        37.9626491495       18.0160536326        3.3528645096
  C        36.7730369331       18.0517888165        2.6317738334
  C        39.4027471991       17.0897284783        5.1739795718
  C        39.3831214450       17.1095223174        6.5954906957
  C        38.1680925312       17.2354318552        7.3406550541
  C        35.1332568409       26.6493116234        7.2946686035
  C        35.1647321742       26.6643716287        4.4856470704
  C        26.5735440289       17.8278117652        2.3318214543
  C        25.2592077251       17.8739754960        3.0391381850
  C        25.0009342922       18.8719060047        3.9909820610
  C        23.7823953678       18.8991259761        4.6634888778
  C        22.7937574177       17.9272626844        4.4097478537
  C        23.0473710235       16.9537578246        3.4264431242
  C        24.2659142169       16.9252981393        2.7509288047
  C        21.5300350238       17.9089037566        5.1824175715
  C        21.5533473353       17.8989496394        6.6040964625
  C        22.7711565571       17.7825981455        7.3471251349
  C        14.0470513052       17.8291306405        2.2939323202
  C        15.3518036120       17.8870272790        3.0191291051
  C        15.6080286847       18.8905056585        3.9666342274
  C        16.8170187046       18.9122561268        4.6596174990
  C        17.8044136534       17.9333476453        4.4275108814
  C        17.5529651969       16.9541478854        3.4478045389
  C        16.3434061390       16.9278106206        2.7563618483
  C        19.0734615986       17.9168853309        5.1970738780
  C        19.0717955377       17.9139435918        6.6196792243
  C        17.8645218154       17.8158927659        7.3805913872
  C        46.8027973547       17.2160777649        2.1620567828
  C        45.5098173692       17.1457602063        2.9026940147
  C        45.3053091676       16.1618440971        3.8826344845
  C        44.1217010082       16.1339886490        4.6154636344
  C        43.1116767195       17.0898603441        4.3911026946
  C        43.3127500384       18.0524563822        3.3832113771
  C        44.4972607315       18.0842323455        2.6510697114
  C        41.8588523147       17.0945070462        5.1815435150
  C        41.8677458894       17.0992697595        6.6036924398
  C        43.0784176587       17.1972151443        7.3591884068
  C        20.3183901009       17.9245860916        7.3285301884
  C        20.2980028441       17.8978724344        4.5154831788
  C        46.7856054232       17.2321571535       13.8818104639
  C        45.4846297060       17.1277115001       13.1620939329
  C        45.2675482866       16.1280528858       12.2015530513
  C        44.0807993333       16.1001985002       11.4732208133
  C        43.0813699880       17.0692263624       11.6876936355
  C        43.2896289762       18.0398336321       12.6855162778
  C        44.4772510381       18.0737973800       13.4093933317
  C        41.8340926106       17.0880603315       10.8921726029
  C        41.8553454685       17.0945064823        9.4709380069
  C        43.0726595997       17.1920442892        8.7259629750
  C        46.1533370761       26.6372809636        8.7211553186
  C        46.1622687587       26.6560235196       11.5307951680
  C        14.0453585896       17.8317286333       13.7037213402
  C        15.3663778451       17.9061216035       13.0132622898
  C        15.6400252432       18.9221038338       12.0853924289
  C        16.8690854649       18.9596195608       11.4307089135
  C        17.8520520932       17.9802331133       11.6780681959
  C        17.5852651514       16.9931980318       12.6442688977
  C        16.3582426879       16.9551952412       13.3024857198
  C        19.1194432994       17.9556836584       10.9094020511
  C        19.0957426778       17.9328727452        9.4878629350
  C        17.8761862841       17.8242771983        8.7466196043
  C        28.7934158254       14.1179230372        2.4036402062
  C        28.1911047842       12.9407366161        3.0932282314
  C        28.9111592892       12.2121911794        4.0512730422
  C        28.3173316538       11.1298227544        4.6963128841
  C        26.9888009453       10.7542362447        4.4104227822
  C        26.2912892721       11.4646733524        3.4169323336
  C        26.8833668910       12.5449684894        2.7682472928
  C        26.3208962619        9.6704449729        5.1674398973
  C        26.2988031723        9.6981914009        6.5883738390
  C        26.7922366233       10.8142616957        7.3360222118
  C        32.1799060514       21.2411655847        2.1499726641
  C        32.7725717046       22.4085935975        2.8679604347
  C        32.0227424056       23.0840678451        3.8432129842
  C        32.5908424182       24.1250192759        4.5711128013
  C        33.9242874536       24.5175553029        4.3447204731
  C        34.6564301929       23.8602207428        3.3383266425
  C        34.0906008295       22.8140151999        2.6120249239
  C        34.5509008769       25.5940169919        5.1449217763
  C        34.5432336217       25.5648102321        6.5664093947
  C        34.0382343867       24.4474691578        7.3038101991
  C        25.6892509089        8.6185039611        7.3046628983
  C        25.6908727705        8.6168886668        4.4915109841
  C        32.1145441447       21.1997260953       13.8475584781
  C        32.7011653125       22.3588108498       13.1107428974
  C        31.9631592341       23.0261642282       12.1209796890
  C        32.5391446500       24.0642612392       11.3926349974
  C        33.8678889798       24.4646298918       11.6355127495
  C        34.5878178607       23.8123845279       12.6544811982
  C        34.0156805398       22.7698336272       13.3791015655
  C        34.5048457291       25.5499609662       10.8546037146
  C        34.5186090506       25.5429763405        9.4327733562
  C        34.0255379188       24.4376121135        8.6703033851
  C        40.6160657724       17.0916152534        8.7503954138
  C        40.6050466072       17.1173735722       11.5605062492
  C        28.7165181188       14.0945826342       13.7816873812
  C        28.1064125989       12.9447895649       13.0499358115
  C        28.8450603581       12.2358274899       12.0902327529
  C        28.2651502106       11.1735131000       11.4011076265
  C        26.9303039379       10.7936112300       11.6464315232
  C        26.2092249738       11.4883489246       12.6354905115
  C        26.7879983645       12.5507022365       13.3272485885
  C        26.2905534789        9.7004596552       10.8757183300
  C        26.2851295107        9.7132462226        9.4540798303
  C        26.7842405850       10.8224046246        8.7015918021
  C        18.1353840121        3.1810244815        2.3222857226
  C        17.4060465016        4.2782547602        3.0208236587
  C        16.3906016735        3.9998864863        3.9486464247
  C        15.7428818558        5.0398631436        4.6121419743
  C        16.0945289387        6.3836147790        4.3721934772
  C        17.0835653724        6.6531344858        3.4080657640
  C        17.7326568286        5.6157974297        2.7430135724
  C        15.4702674792        7.4913157954        5.1352558287
  C        15.4856619233        7.4906681168        6.5569648561
  C        16.1872698566        6.4970938302        7.3101418914
  C        42.9459043129       31.8594675245        2.0780120877
  C        43.6462740885       30.7718471348        2.8219075378
  C        44.5917685229       31.0931865051        3.8080258659
  C        45.1975046072       30.0876318430        4.5556431388
  C        44.8710924041       28.7345544394        4.3407881919
  C        43.9453347935       28.4202082154        3.3275098765
  C        43.3364924094       29.4253477340        2.5795009014
  C        45.4887030747       27.6552780210        5.1439751760
  C        45.4929282075       27.6809805919        6.5656648685
  C        44.8058495475       28.6890325256        7.3122882878
  C        14.8566822438        8.5631495537        7.2693303282
  C        14.8749614155        8.5630802403        4.4566703890
  C        42.9464963657       31.9615541514       13.8038537326
  C        43.6917180017       30.8854877516       13.0904242601
  C        44.6561662102       31.1913931809       12.1179608609
  C        45.2776905066       30.1718052736       11.4002576585
  C        44.9540482000       28.8214623485       11.6380062858
  C        44.0207326436       28.5238051926       12.6489532857
  C        43.3924770553       29.5405700429       13.3611231789
  C        45.5630453953       27.7240669543       10.8527424625
  C        45.5334140813       27.7174661491        9.4314425682
  C        44.8270933517       28.7076833455        8.6784737144
  C        35.1221216131       26.6373594577        8.7293923037
  C        35.1144408074       26.6079277004       11.5393944140
  C        18.1485617029        3.2470053706       13.7015132078
  C        17.4300054501        4.3438460871       12.9922373660
  C        16.4149411661        4.0525954836       12.0684998753
  C        15.7666761433        5.0832462235       11.3931034534
  C        16.1211872915        6.4284947128       11.6160167933
  C        17.1123662015        6.7118458522       12.5734957919
  C        17.7599951642        5.6829197952       13.2532745225
  C        15.4907109366        7.5241988633       10.8435795528
  C        15.4966870976        7.5075922717        9.4224459383
  C        16.1935250548        6.5059408779        8.6757471114
  H        10.6724245882       12.4658273610       11.8995148658
  H        11.6946546364       10.5509667775       10.6576459711
  H        15.3917791190       11.1688338552       12.7669785631
  H        14.3512639609       13.0716775316       14.0121544233
  H        13.3762334877       11.6312118099        9.1962452724
  H        50.3226781186       22.7485974227       11.9820519479
  H        49.3195072497       24.6230232456       10.6759539655
  H        45.6417624298       24.1607637550       12.8582907934
  H        46.6627052172       22.2899036801       14.1666120950
  H        47.6296126513       23.5758353640        9.2411192939
  H        14.8720963356        8.5883550198       12.6034638348
  H        50.2871870427       22.7028851530        4.0651731144
  H        49.2691862143       24.5757769082        5.3652355178
  H        45.6101886434       24.1086389925        3.1516591751
  H        46.6523027657       22.2533180579        1.8374275717
  H        47.6076646744       23.5518028531        6.8019668572
  H        40.6364385338       17.0641250393        3.4185027850
  H        48.6870898248       14.0949674788       15.7949319800
  H        10.6812667170       12.4665243430        4.0981829888
  H        11.6895553966       10.5245920221        5.3019320506
  H        15.3937125326       11.1592578968        3.2110100190
  H        14.3651442400       13.0877014774        1.9957031156
  H        13.3758885546       11.6221881961        6.7582073987
  H        47.9300760128       14.2187607568        1.7157521106
  H        47.7799969333       14.3737731969       14.4902129425
  H        49.0827436841       18.5518090325        2.8722199955
  H        10.4158548660       14.1343891854        0.0038540206
  H        24.4808004087        3.0331319393       11.9074905589
  H        25.6141808029        4.8947995354       10.6785297610
  H        23.2304319416        7.7557281178       12.8308238044
  H        22.1161315192        5.8844446105       14.0619132951
  H        23.8088086234        5.7917940018        9.2461945222
  H        36.3690051863       32.1887829920       11.9697126547
  H        35.2408322749       30.3658034053       10.6911032516
  H        37.5148487900       27.4399230070       12.8751764739
  H        38.6219946814       29.2755986708       14.1638876812
  H        37.0078722089       29.4606217124        9.2672974570
  H        25.7110062009        8.6198039018       12.6395328270
  H        36.4505065388       32.2473383340        4.1092066311
  H        35.3316616050       30.4327895980        5.4036471724
  H        37.5203188634       27.4904320491        3.1539871622
  H        38.6133541128       29.3167724315        1.8462524286
  H        37.0250077704       29.4818726151        6.8295950085
  H        46.1091999285       26.5874105456        3.3906727167
  H        44.6682285617       35.1161370687       15.8088235507
  H        24.4469266628        3.0413057409        4.0824562065
  H        25.5835482883        4.8810371547        5.3278903132
  H        23.1734905804        7.7690519692        3.2430000610
  H        22.0491239438        5.9174890044        1.9967959083
  H        23.7997054624        5.7913002046        6.8076927856
  H        44.9535949085       34.3901289998        1.7001163292
  H        44.9015250835       34.2067550334       14.4854484075
  H        40.6658965821       33.2089396283        2.8581341886
  H        23.1505016203        1.9578155657        0.0097062056
  H        25.8078389198       19.6650302497       11.9171544028
  H        23.6393319078       19.7065026550       10.6856936968
  H        22.3592903506       16.2103757776       12.8384411918
  H        24.5354536421       16.1815006748       14.0650495434
  H        23.7234531930       17.6714255574        9.2436108577
  H        35.1588672336       15.4361292394       12.0043127135
  H        37.2777884415       15.3937939147       10.6824853490
  H        38.6964585170       18.8115760563       12.8749785281
  H        36.5729949156       18.8347131950       14.1975705342
  H        37.2248064399       17.3737802424        9.2399813098
  H        20.3576252395       17.9764583753       12.6650424142
  H        35.1466953018       15.4544673485        4.1097005183
  H        37.2845976045       15.3789039908        5.3975440473
  H        38.7433756711       18.7475428737        3.1549360863
  H        36.6044917748       18.7991136775        1.8601904644
  H        37.2342354766       17.3607032604        6.8000819302
  H        35.1380241373       26.6900356948        3.3979306570
  H        28.5050314102       21.0881541585       15.8960068680
  H        25.7681873700       19.6174621497        4.1868745401
  H        23.5815379672       19.6780934282        5.3958166645
  H        22.2926491645       16.1963857258        3.2245393326
  H        24.4773208241       16.1624712583        2.0053650776
  H        23.7026701654       17.6568645154        6.8034477515
  H        29.0021998545       21.7244248716        1.7512563791
  H        29.1807457287       21.7349573002       14.5646852143
  H        32.0888548498       18.5709649791        2.9974710770
  H        27.4036515015       19.0778950813        0.0920578106
  H        14.8491619118       19.6491445406        4.1447733100
  H        17.0115426939       19.6968383884        5.3877198415
  H        18.3046278132       16.1903244688        3.2592489469
  H        16.1381504216       16.1583794544        2.0158534766
  H        16.9220876636       17.7010110056        6.8530316850
  H        46.0914446065       15.4326806083        4.0639163023
  H        43.9651793777       15.3637974463        5.3675528980
  H        42.5411580999       18.7985366548        3.2047123956
  H        44.6679269902       18.8423341209        1.8902214991
  H        44.0189066946       17.3083908037        6.8271657508
  H        20.2923523521       17.9283748551        3.4273590599
  H        46.0442251702       15.3867528400       12.0278828805
  H        43.9150403257       15.3235996555       10.7297125403
  H        42.5232780559       18.7927600869       12.8574856734
  H        44.6585403945       18.8416435423       14.1574724556
  H        44.0088414274       17.2981235639        9.2664009313
  H        46.1990514814       26.6824942329       12.6182437553
  H        52.7411160443       21.0626125410        0.1997699704
  H        14.8796407103       19.6760665561       11.8940012091
  H        17.0804902588       19.7504692530       10.7142041689
  H        18.3356469362       16.2307199279       12.8429313999
  H        16.1368327553       16.1803057601       14.0323571103
  H        16.9425084325       17.7158370633        9.2902717699
  H        52.3222194976       21.6731994180       14.2892673557
  H        52.0130939043       21.7019586738        1.5007262602
  H        49.0673779914       18.6077482388       13.1990369871
  H        13.2474467851       19.0163931926       15.9722167124
  H        29.9331305387       12.5081431867        4.2771616546
  H        28.8780407169       10.5626775129        5.4361505657
  H        25.2647684568       11.1855265393        3.1883621123
  H        26.3424529405       13.1135245763        2.0157948832
  H        27.1526953337       11.6850247952        6.7968369652
  H        30.9985624023       22.7668232028        4.0245795749
  H        32.0047705081       24.6493266939        5.3227911745
  H        35.6886398918       24.1539761264        3.1588789764
  H        34.6612710423       22.2803373025        1.8554518657
  H        33.6866528284       23.5770665209        6.7569217015
  H        25.7262305442        8.5968360454        3.4036557963
  H        30.9387871544       22.7129732277       11.9326885865
  H        31.9603685488       24.5838360040       10.6320319033
  H        35.6161340404       24.1108579405       12.8478120353
  H        34.5765133925       22.2441728994       14.1484422137
  H        33.6647213233       23.5593476233        9.1979414985
  H        40.6009247807       17.0856855591       12.6483724907
  H        32.5144769444       14.1496314112        0.2692393460
  H        29.8772054801       12.5254740646       11.9063270306
  H        28.8453556751       10.6193029052       10.6664679484
  H        25.1766630514       11.2070191555       12.8320950712
  H        26.2286477275       13.1023900528       14.0792019203
  H        27.1371212793       11.6994277885        9.2361804019
  H        33.2897996965       14.1771437720       14.4239975586
  H        33.4044790574       14.4018026727        1.6177533032
  H        32.1669037894       18.5600756372       13.2115138059
  H        30.2202741918       14.1902025221        0.0885362938
  H        16.1187318855        2.9633697841        4.1352534746
  H        14.9536207702        4.8204692028        5.3280056760
  H        17.3657289032        7.6860333413        3.2146774721
  H        18.5144030615        5.8184714232        2.0148619657
  H        16.7538899851        5.7397987651        6.7766484854
  H        44.8280485063       32.1402608894        3.9822475243
  H        45.9373352596       30.3413659299        5.3116277660
  H        43.6826463670       27.3781408405        3.1573840924
  H        42.5999379322       29.1899731407        1.8147905399
  H        44.2304547786       29.4367712858        6.7739895053
  H        14.8511273741        8.5463122467        3.3684506990
  H        44.8996320481       32.2340723965       11.9264132578
  H        46.0244960920       30.4130300022       10.6469208010
  H        43.7639037789       27.4840671639       12.8406550454
  H        42.6461582653       29.3177290387       14.1197299932
  H        44.2685240455       29.4705516964        9.2130165195
  H        35.0748724018       26.6177446511       12.6270131221
  H        36.6050906128       35.1341361648        0.1857243662
  H        16.1439720291        3.0130153521       11.8986197248
  H        14.9744611764        4.8564223702       10.6828886144
  H        17.3957076594        7.7473259808       12.7505792921
  H        18.5427110367        5.8933580932       13.9782127559
  H        16.7650025443        5.7557196147        9.2141661584
  H        36.2785965957       34.4824463355       14.2681191119
  H        36.3809543767       34.2091874316        1.5046923891
  H        40.5802562617       33.2024706701       13.1485066691
  H        17.4708278431        1.9474238515       15.9690148828
  H        29.0333910317       19.3984666337        4.4936580051
  H        29.1552766489       19.3161778777       11.6192411198
  H        30.5535867786       15.5964047539       11.9379511915
  H        31.0358303265       15.5491175333        4.4532826375
  H        27.7918548972       17.7466669994        6.6395238590
  H        28.9127861448       15.5516553984        6.5169201158
  H        30.6571862087       20.0335924932        9.4902114165
  H        31.9278825967       15.9223484246        9.7743617321
  H        18.8537044656        0.8691619044        4.3404346699
  H        40.5278995563       35.2290973841       11.9469558670
  H        42.3241851872       34.4189631988       11.5854760433
  H        22.0879137308        0.6921296091        4.3567423443
  H        11.5970762199       18.7128869800        4.3874418809
  H        52.2650281897       18.4311501419       11.6724817570
  H        49.2553428038       16.4770580311       11.5794805220
  H        10.1507978915       15.7982257150        4.2977320338
  H        50.8501177680       17.6924006867       11.9491863735
  H        10.0462923208       17.3945778648        4.0570994671
  H        20.2149410893        0.0023415737        4.0471183884
  H        39.1836201223       36.1245178197       11.6814180382
 Ni        30.8174800258       17.7897665746       10.9064256165
 Ni        30.7734165907       16.4981770783        7.6662582741
 Ni        29.7149813880       18.6230817959        7.7469242522
 Ni        30.0141573003       17.4777144475        5.3255413987
  O        10.6499383951       14.3651448605       13.4807227094
  O        12.6131766274       14.6575192668       14.5788131663
  O        49.1478971984       16.8459628093       15.9847257913
  O        50.3501238791       20.9360623519       13.6430803250
  O        48.3484894917       20.5932882857       14.6608965476
  O        11.0515850754       17.0539048722       14.4956082608
  O        50.3210022719       20.8816930677        2.4119426260
  O        48.3467210518       20.5867406450        1.3322392859
  O        49.5436445216       18.2484233950        2.0733868639
  O        12.3590018708       18.6245968976        0.0048447087
  O        48.6932145062       14.1485745649       14.7461950863
  O         8.2098922034       14.2103783675        1.3276493923
  O        10.7353545917       14.5066987632        2.6694455992
  O        12.5718219236       14.5828475062        1.3336057759
  O        22.8447379243        2.0437078797       13.4819810880
  O        21.6052235783        3.5922535485       14.5847930968
  O        42.0582100580       34.1373908953       15.9739007324
  O        37.9815564697       33.1378136605       13.5675271114
  O        39.2180645866       31.5760677898       14.6614456539
  O        20.3084462420        1.0396676974       14.4970043068
  O        38.0249578045       33.1866049332        2.4199669803
  O        39.2189992803       31.5837589271        1.3317020072
  O        40.6523445844       33.7694044994        2.0653564690
  O        18.2554705558        1.3761921384        0.0019051859
  O        44.6222034893       35.1005673518       14.7536256627
  O        24.2054293951        0.0000010834        1.3259074902
  O        22.7531600392        2.0579234973        2.5890015242
  O        21.6247269607        3.5963497187        1.3481785893
  O        27.4982558863       18.7549674824       13.4916588902
  O        26.7654228512       16.9356059867       14.6482289078
  O        30.6678597240       19.4095789324        0.0772724196
  O        33.5879915311       16.2788044324       13.6617597763
  O        34.2764566698       18.1696018593       14.7305441304
  O        29.5743108773       17.0633291903       14.5809488692
  O        33.5611661449       16.3408414388        2.4218033252
  O        34.3032111696       18.2416983890        1.4142393864
  O        31.6509799316       18.3177286112        2.1676908788
  O        30.3220772735       15.1561178422        0.0907916876
  O        28.5559790900       21.0377713391       14.8365176596
  O        28.5147656698       20.9556196568        1.4095025682
  O        27.4603856927       18.6794388478        2.6662466642
  O        26.6942829285       16.9306708204        1.4191563845
  O        13.1489491253       18.6929527123        2.5925890263
  O        13.9196986235       16.9162973185        1.4103819453
  O        50.5959318243       19.3501649594        0.0256980528
  O        47.6833211494       16.3268855635        2.4222479867
  O        46.9506521405       18.1755267541        1.3305696450
  O        11.0697171315       17.0155613974        1.4947990390
  O        47.6761523719       16.3357410594       13.6479459778
  O        46.9265187876       18.2357537387       14.6589136612
  O        49.5685752615       18.3177209983       13.9772283686
  O        10.3186250824       15.1002501249        0.0022078585
  O        52.6707606252       21.0278898506        1.2469320404
  O        12.1468179562       20.8911796627       14.6681279888
  O        13.1080780316       18.6136803642       13.3205591180
  O        13.9572055441       16.9870146474       14.6603288615
  O        29.9638684321       14.5024026027        2.7473361431
  O        28.0810268925       14.6570774706        1.4918709622
  O        32.1359788762       16.8620634152        0.0942128924
  O        30.9656743460       20.9534242996        2.4143355935
  O        32.9475592651       20.6020441304        1.3454494921
  O        29.5661095858       17.0827778919        1.5814729264
  O        30.9003434306       20.8840288473       13.5876975447
  O        32.8791429873       20.5852164622       14.6618070670
  O        31.6860145290       18.2504562885       13.9952847227
  O        28.2890999327       18.6795141259        0.0843939539
  O        32.4896143889       14.2140391601        1.3391875553
  O        32.4029652696       14.2100792762       14.8190933829
  O        29.8709036405       14.5002540388       13.4115354271
  O        28.0398868149       14.5864820976       14.7475080481
  O        17.8892372506        1.9666596216        2.6678947005
  O        18.9562621074        3.5271736782        1.4131079338
  O        39.1687087511       34.1388506026        0.0022959221
  O        43.2802266601       33.0589506084        2.3368236944
  O        42.0345042709       31.5064915361        1.2467088517
  O        20.3177863531        1.0367942832        1.4852971797
  O        43.2760780108       33.1826143267       13.5698058535
  O        42.0052730348       31.5841392146       14.5778833826
  O        40.5790082208       33.7750065558       13.9307313902
  O        22.3673290094        1.3846653595        0.0030769319
  O        36.6727279720       35.0998426760        1.2383508715
  O        16.4455566962        0.0642981749       14.6631703227
  O        17.9364712689        2.0433881227       13.3212893507
  O        18.9190457786        3.5931234092       14.6608527873
  O        29.8201980301       18.8328742921       12.1415578137
  O        29.8114082977       18.9822352363        4.0734428102
  O        31.2299399487       16.2691412337       12.1504935532
  O        31.2967355861       16.4127059242        4.0773241963
  O        31.4721298389       16.7021555704        9.4085724780
  O        29.8307232240       15.7410494946        6.2568413273
  O        30.3327244763       19.1221350543        9.4069868234
  O        28.4780684137       18.3956976321        6.4073825295
  O        39.4567807348       35.2438736796       11.9968938269
  O        19.1416081637        0.0047188859        3.9956568223
  O        41.9696540001       35.1727490370       12.0821363994
  O        21.6914056916       -0.0692113943        3.9010572568
  O        51.3651405319       18.6143168704       12.0003794903
  O        10.7511919989       18.7472009073        3.9100504617
  O        50.0798527376       16.4127842553       12.0866365673
  O         9.5248258666       16.4830185505        3.9963275666
 Zr         9.2966424639       16.0528263185       14.1773297408
 Zr        49.8362017041       16.0068004223        1.7516569153
 Zr        22.0732411806        0.0298094877       14.1839845268
 Zr        42.4609879328       35.1533898450        1.8061354712
 Zr        29.6110284669       19.0770416312       14.3058143254
 Zr        29.5823322138       19.1821552060        1.8875927405
 Zr        11.0379264012       19.0519722577        1.8328539229
 Zr        11.0436819103       19.1548133076       14.2461106136
 Zr        31.3446544068       16.1153293503        1.9109095101
 Zr        31.4076735967       16.0132431388       14.2954575510
 Zr        18.6011834044       -0.0012184112        1.7684645306
 Zr        18.5064988794       -0.0076568831       14.2086746628
 Zr        12.3020153380       16.3237119126       15.9852451461
 Zr        48.6158623699       18.8328736524        0.0155692486
 Zr        20.3151452215        2.4734612693       15.9856617488
 Zr        40.6435715838       32.6870029041       15.9731380843
 Zr        28.3470172195       16.3469007017        0.0889481210
 Zr        32.6343569192       18.8359142054        0.0652980785
  H        31.1925613216       21.2096491764        6.6814247674
  H        30.9781303124       20.5165543360        6.8438238699
  H        33.1887237149       16.1987234796        6.8170535729
  H        32.9529453792       16.2640466235        6.1136099409
