     572
 i =      205, E =     -4746.7708986735
  C        11.8585538209       14.0535788437       13.7364995872
  C        12.4561035439       12.8905716442       13.0181690431
  C        11.7045412584       12.1718933165       12.0762471037
  C        12.2809199501       11.1096867972       11.3838697395
  C        13.6213721883       10.7396405712       11.6118955054
  C        14.3543933172       11.4429549052       12.5856608358
  C        13.7814848568       12.5079233478       13.2771738725
  C        14.2609762094        9.6490150470       10.8385088334
  C        14.2564709739        9.6570119690        9.4168030614
  C        13.7433996757       10.7591791796        8.6628883776
  C        49.1264940013       21.2333226611       13.8746583946
  C        48.5496876530       22.4011606996       13.1475640046
  C        49.2998279453       23.0686382527       12.1667512058
  C        48.7328995383       24.1077428186       11.4335183935
  C        47.4022438825       24.5091584688       11.6618994836
  C        46.6711264320       23.8600541669       12.6751392109
  C        47.2335869822       22.8151799893       13.4045357142
  C        46.7721144239       25.5868970459       10.8645928676
  C        46.7613753771       25.5574179706        9.4428247564
  C        47.2613560347       24.4423367330        8.6993492057
  C        14.8604483759        8.5706803478        8.7035498292
  C        14.8916017353        8.5969758854       11.5151551701
  C        49.1130576902       21.2034116258        2.1504939267
  C        48.5276956281       22.3647223322        2.8776248150
  C        49.2670548450       23.0256873316        3.8702829945
  C        48.6907243818       24.0602496638        4.6017161890
  C        47.3601838157       24.4567616942        4.3637133990
  C        46.6395812192       23.8115325864        3.3405346688
  C        47.2131410991       22.7756044478        2.6087841495
  C        46.7218173418       25.5317923436        5.1547183787
  C        46.7337145992       25.5282627485        6.5764120345
  C        47.2491390759       24.4290532464        7.3327970327
  C        40.6199786329       17.0842025126        7.3151547381
  C        40.6311001206       17.0977597625        4.5054794338
  C        11.8828333815       14.0865823582        2.2905951931
  C        12.4721577167       12.9106600983        2.9947917702
  C        11.7147192087       12.1776405930        3.9210773638
  C        12.2812805717       11.0951550035        4.5895040100
  C        13.6200320162       10.7212798882        4.3575319865
  C        14.3579072510       11.4366512956        3.3965049053
  C        13.7924952250       12.5178512982        2.7238310282
  C        14.2536722772        9.6245380881        5.1279314611
  C        14.2526250831        9.6446430158        6.5497662411
  C        13.7428355659       10.7536282903        7.2968444977
  C        22.5103922663        3.2444612969       13.7467176867
  C        23.2217236270        4.3502161700       13.0435152294
  C        24.2195497901        4.0704797065       12.0981883797
  C        24.8444199737        5.1099552374       11.4138867277
  C        24.4868793868        6.4514627310       11.6545588204
  C        23.5163615563        6.7228454041       12.6362183291
  C        22.8872183609        5.6851643334       13.3191554580
  C        25.0926623514        7.5581051052       10.8788602273
  C        25.0725683532        7.5489321118        9.4570371137
  C        24.3766638598        6.5470775597        8.7084571152
  C        38.3015544389       31.9290141214       13.8444497430
  C        37.5696951659       30.8401295210       13.1367424273
  C        36.6069131298       31.1447597769       12.1622201411
  C        35.9873797861       30.1251971266       11.4449902168
  C        36.3161700421       28.7756972536       11.6798438230
  C        37.2488049901       28.4784896301       12.6914733001
  C        37.8721074949       29.4967341322       13.4080386616
  C        35.7140538694       27.6847793832       10.8811147205
  C        35.7440161818       27.7027653238        9.4596434338
  C        36.4456674959       28.7089360960        8.7235363481
  C        25.6972379994        8.6189876148        8.7385998859
  C        25.6842240362        8.6354703638       11.5508705442
  C        38.3285955697       31.9627956445        2.1611522774
  C        37.6059329890       30.8914644866        2.9030792603
  C        36.6762374981       31.2027480164        3.9070894317
  C        36.0641627484       30.1860099291        4.6370719608
  C        36.3678868764       28.8329158582        4.3865818100
  C        37.2754235832       28.5316922528        3.3525652775
  C        37.8894398310       29.5448396626        2.6236146641
  C        35.7587021533       27.7348756343        5.1705317174
  C        35.7668244199       27.7285410897        6.5924970787
  C        36.4563424907       28.7214228632        7.3569817979
  C        46.1357394095       26.6209217466        7.2865291895
  C        46.0877175577       26.5800391459        4.4786379138
  C        22.4630184369        3.2554887349        2.2612850795
  C        23.1628817909        4.3636280586        2.9806602310
  C        24.1703872553        4.0759017201        3.9151800633
  C        24.8035910651        5.1048911827        4.6083609372
  C        24.4493049846        6.4511800307        4.3897335178
  C        23.4652038107        6.7323225983        3.4231985001
  C        22.8276422914        5.7035637409        2.7302705465
  C        25.0812884088        7.5483269586        5.1649951569
  C        25.0678854417        7.5429761711        6.5877493802
  C        24.3724245053        6.5454871004        7.3417545730
  C        26.6094802198       17.8564436178       13.7829489712
  C        25.3034051224       17.8992446335       13.0580571334
  C        25.0373112276       18.9027150168       12.1127756686
  C        23.8265056034       18.9180246149       11.4231693687
  C        22.8441990615       17.9348833907       11.6591952542
  C        23.1053773545       16.9548127238       12.6354692470
  C        24.3190022044       16.9327279572       13.3211584313
  C        21.5721673480       17.9197970967       10.8934088456
  C        21.5741468066       17.9027230085        9.4710116355
  C        22.7807009783       17.7830348604        8.7115397009
  C        34.4364972208       17.1972864149       13.9127427256
  C        35.7290603746       17.1445553563       13.1684893949
  C        35.9383685507       16.1667524078       12.1834673312
  C        37.1181372148       16.1519014468       11.4449597564
  C        38.1224030916       17.1128506454       11.6724107051
  C        37.9168245716       18.0708307329       12.6834210616
  C        36.7335799093       18.0916469810       13.4184615234
  C        39.3757271823       17.1178442757       10.8834430935
  C        39.3678785558       17.1194811411        9.4614100177
  C        38.1588013048       17.2360421658        8.7057967643
  C        20.3282740339       17.9219478769        8.7613532074
  C        20.3472029150       17.9211611385       11.5749169479
  C        34.4402837421       17.2366486185        2.1937997950
  C        35.7424871285       17.1325228252        2.9133709220
  C        35.9451953011       16.1543795856        3.8983283819
  C        37.1353552564       16.1224736591        4.6210750826
  C        38.1515963497       17.0676191429        4.3792335932
  C        37.9552200191       18.0178960683        3.3595390970
  C        36.7646195525       18.0549307549        2.6400341109
  C        39.4007287214       17.0835655637        5.1729582956
  C        39.3806597753       17.1021470229        6.5945827199
  C        38.1650480417       17.2259813430        7.3390422690
  C        35.1396371042       26.6467031050        7.2951895167
  C        35.1705809843       26.6640263547        4.4861750140
  C        26.5704603978       17.8281306196        2.3305627075
  C        25.2551809939       17.8738726184        3.0358652252
  C        24.9927960708       18.8756330232        3.9823790187
  C        23.7751242922       18.9005652084        4.6562770348
  C        22.7910166666       17.9230734493        4.4076998714
  C        23.0476784699       16.9461562585        3.4287065268
  C        24.2659467384       16.9195757745        2.7526866304
  C        21.5277564682       17.9033621086        5.1808798950
  C        21.5511402020       17.8922411655        6.6024378339
  C        22.7692914864       17.7774961620        7.3451889779
  C        14.0462222740       17.8289365313        2.2936027437
  C        15.3509130143       17.8860338905        3.0185406035
  C        15.6079350771       18.8893379676        3.9658709203
  C        16.8169724725       18.9097075864        4.6586760388
  C        17.8029051243       17.9296066119        4.4260015338
  C        17.5508112150       16.9507171233        3.4463328941
  C        16.3412029135       16.9257084604        2.7552478536
  C        19.0716547002       17.9114035170        5.1953268655
  C        19.0696257680       17.9060709617        6.6176934340
  C        17.8619827409       17.8067851024        7.3778632431
  C        46.8022254239       17.2160914425        2.1622271258
  C        45.5091928180       17.1454734436        2.9029039572
  C        45.3053025281       16.1620755681        3.8835915908
  C        44.1215236657       16.1334497839        4.6161757626
  C        43.1102379686       17.0879282158        4.3910897368
  C        43.3108012122       18.0500560707        3.3825465741
  C        44.4955311059       18.0826715647        2.6506504829
  C        41.8569943719       17.0911850301        5.1811899854
  C        41.8653823203       17.0955940828        6.6034736182
  C        43.0755910460       17.1953440669        7.3595836019
  C        20.3160311546       17.9155871614        7.3266045941
  C        20.2960440054       17.8928828059        4.5137073451
  C        46.7847195970       17.2322313378       13.8814698052
  C        45.4832209070       17.1280512714       13.1619971328
  C        45.2651439521       16.1287946917       12.2011295159
  C        44.0778289531       16.1011636669       11.4734954095
  C        43.0780705393       17.0699821546       11.6883899174
  C        43.2873113526       18.0401046934       12.6866078630
  C        44.4755050360       18.0738307833       13.4098477533
  C        41.8304299612       17.0886266030       10.8927052626
  C        41.8519322640       17.0932496980        9.4712845495
  C        43.0693316769       17.1911581646        8.7264026722
  C        46.1534580927       26.6373447021        8.7210721330
  C        46.1620341690       26.6559396583       11.5307175134
  C        14.0441932291       17.8303972910       13.7032796722
  C        15.3642548684       17.9012717435       13.0110308043
  C        15.6399280384       18.9171931190       12.0838416033
  C        16.8686090933       18.9514396486       11.4284320354
  C        17.8484116193       17.9687864689       11.6747999911
  C        17.5793907028       16.9812456463       12.6396634943
  C        16.3528632321       16.9465922114       13.2986550214
  C        19.1156481506       17.9420205012       10.9066493151
  C        19.0926904604       17.9206293506        9.4852661379
  C        17.8731551258       17.8134213436        8.7438648598
  C        28.7943269044       14.1157356945        2.4018375047
  C        28.1943679482       12.9360491283        3.0898032131
  C        28.9203892460       12.2005398881        4.0380173142
  C        28.3286131167       11.1176361610        4.6841892467
  C        26.9965941564       10.7476286211        4.4079431569
  C        26.2931015820       11.4642145613        3.4231934082
  C        26.8828797886       12.5456781231        2.7741906881
  C        26.3309745180        9.6630535796        5.1661041990
  C        26.3111552730        9.6904585759        6.5869855669
  C        26.8071619062       10.8059397027        7.3337566261
  C        32.1804490975       21.2445474831        2.1481360977
  C        32.7745712689       22.4126615717        2.8629485735
  C        32.0282485351       23.0837385175        3.8438553624
  C        32.5982945270       24.1225693275        4.5730453268
  C        33.9301752161       24.5177943200        4.3424573776
  C        34.6584211156       23.8656277853        3.3296880773
  C        34.0908228120       22.8212652120        2.6020564018
  C        34.5582448501       25.5922401398        5.1443878160
  C        34.5521482110       25.5613212337        6.5660917815
  C        34.0516149854       24.4415318862        7.3025221398
  C        25.6998964437        8.6122150162        7.3040170197
  C        25.6990520284        8.6104291820        4.4908004860
  C        32.1182789329       21.1951604423       13.8420320473
  C        32.7039937364       22.3532343803       13.1056400423
  C        31.9713210651       23.0088303118       12.1043885065
  C        32.5464302063       24.0491696974       11.3790058319
  C        33.8692595054       24.4612197651       11.6341683436
  C        34.5838210406       23.8193609346       12.6636309567
  C        34.0122243520       22.7759184405       13.3868990694
  C        34.5068246175       25.5466099953       10.8542200748
  C        34.5250981038       25.5382778946        9.4322345715
  C        34.0381883177       24.4305419379        8.6691079891
  C        40.6129294871       17.0882923605        8.7500500509
  C        40.6007336640       17.1189978301       11.5603003298
  C        28.7153049301       14.0939748529       13.7827836353
  C        28.1074742181       12.9440105333       13.0501675691
  C        28.8482381139       12.2355951263       12.0915418041
  C        28.2701232502       11.1727871866       11.4017225677
  C        26.9350837889       10.7919725927       11.6450812138
  C        26.2121052488       11.4862607804       12.6331127033
  C        26.7890173305       12.5489083163       13.3257965972
  C        26.2970660849        9.6979575534       10.8744155073
  C        26.2947974999        9.7088047131        9.4527749361
  C        26.7971662153       10.8159895048        8.6993268060
  C        18.1352961949        3.1808942950        2.3221746772
  C        17.4058877389        4.2781760034        3.0207236511
  C        16.3905546258        3.9997472724        3.9486273588
  C        15.7428174752        5.0396838184        4.6121884391
  C        16.0942993123        6.3834540479        4.3721521021
  C        17.0832161685        6.6530246189        3.4079168607
  C        17.7323061952        5.6157225441        2.7428077348
  C        15.4700769963        7.4911690838        5.1352435475
  C        15.4855465864        7.4905918629        6.5569566099
  C        16.1871537051        6.4970169088        7.3101396385
  C        42.9458660689       31.8593922967        2.0779686942
  C        43.6462126993       30.7717867655        2.8218822380
  C        44.5919895270       31.0930929732        3.8077338351
  C        45.1976823894       30.0875274260        4.5553620398
  C        44.8709861145       28.7344821377        4.3407194430
  C        43.9448289168       28.4201704274        3.3278061816
  C        43.3360202957       29.4253265422        2.5797866721
  C        45.4886439349       27.6552295446        5.1439112662
  C        45.4929866628       27.6810052085        6.5655939438
  C        44.8058842109       28.6890549420        7.3121917196
  C        14.8566570036        8.5631430899        7.2693184028
  C        14.8747055760        8.5628955834        4.4566635429
  C        42.9464940341       31.9614420515       13.8039109094
  C        43.6915905425       30.8853912123       13.0903422813
  C        44.6563835010       31.1912868093       12.1182165994
  C        45.2778430023       30.1716904638       11.4004723860
  C        44.9537876129       28.8213828930       11.6378557497
  C        44.0200162706       28.5237282838       12.6483636651
  C        43.3918142957       29.5404977796       13.3605709545
  C        45.5629262368       27.7240226580       10.8526457805
  C        45.5334326665       27.7174732329        9.4313467938
  C        44.8271278600       28.7076964412        8.6783721525
  C        35.1269544119       26.6343419076        8.7299353635
  C        35.1129055635       26.6063013784       11.5397629056
  C        18.1485161789        3.2468504935       13.7015853659
  C        17.4298472161        4.3437616766       12.9923504431
  C        16.4149512248        4.0524615605       12.0684349848
  C        15.7666088732        5.0830874317       11.3930439284
  C        16.1209342163        6.4283669548       11.6160810805
  C        17.1119261378        6.7117688233       12.5737520393
  C        17.7596215630        5.6828654597       13.2535192779
  C        15.4905397897        7.5240860259       10.8435917805
  C        15.4966131816        7.5075426084        9.4224498814
  C        16.1933865135        6.5058525607        8.6757396450
  H        10.6724879662       12.4662144857       11.8990472257
  H        11.6946839666       10.5513605461       10.6571653478
  H        15.3913074942       11.1680992568       12.7676621449
  H        14.3507802855       13.0709542416       14.0128928883
  H        13.3763394651       11.6312785723        9.1962061798
  H        50.3226176022       22.7487556528       11.9821969962
  H        49.3194211579       24.6231310576       10.6760530070
  H        45.6414877466       24.1605095241       12.8580062968
  H        46.6623984561       22.2897547959       14.1663726878
  H        47.6297081882       23.5758790950        9.2410327096
  H        14.8716789614        8.5880950712       12.6034562214
  H        50.2871898247       22.7030167495        4.0650164208
  H        49.2691636996       24.5758969373        5.3650534228
  H        45.6100178984       24.1084182366        3.1517796443
  H        46.6520951320       22.2531575282        1.8375738480
  H        47.6077930990       23.5518739979        6.8019149411
  H        40.6348425737       17.0619119108        3.4177111004
  H        48.6869815696       14.0950323475       15.7948743393
  H        10.6812827896       12.4668228325        4.0985547076
  H        11.6895023966       10.5248587315        5.3022960169
  H        15.3932697873       11.1586048235        3.2104221078
  H        14.3647287922       13.0871084546        1.9951221171
  H        13.3759626159       11.6222149436        6.7581891337
  H        47.9300042804       14.2186713677        1.7157248224
  H        47.7799429652       14.3737493301       14.4900779147
  H        49.0822745620       18.5518299287        2.8720283324
  H        10.4156015355       14.1344132586        0.0038286367
  H        24.4834079603        3.0320726956       11.9102992866
  H        25.6190053000        4.8924897332       10.6816580685
  H        23.2323430542        7.7554686060       12.8281768468
  H        22.1161051794        5.8852488039       14.0590986187
  H        23.8145345132        5.7895952809        9.2468871464
  H        36.3690807529       32.1881024147       11.9689235247
  H        35.2406370456       30.3649360466       10.6912229330
  H        37.5099985862       27.4392327828       12.8800653967
  H        38.6177722651       29.2748974435       14.1678101557
  H        37.0079011767       29.4603231508        9.2702568743
  H        25.7140129826        8.6200018150       12.6388785528
  H        36.4542429043       32.2474886956        4.1124964367
  H        35.3374209712       30.4323796407        5.4080056423
  H        37.5213790909       27.4908485948        3.1529325997
  H        38.6124426600       29.3174999513        1.8440640909
  H        37.0278987260       29.4819437335        6.8328385931
  H        46.1088304395       26.5872448843        3.3905962192
  H        44.6680386144       35.1159919524       15.8088574751
  H        24.4475237501        3.0371612421        4.0802802717
  H        25.5877691432        4.8744354390        5.3264028957
  H        23.1799041717        7.7672217362        3.2454520760
  H        22.0519355860        5.9178928686        1.9987040046
  H        23.8064926112        5.7872653323        6.8083006050
  H        44.9530254004       34.3895956264        1.6997406621
  H        44.9009438179       34.2065230744       14.4854606641
  H        40.6654179798       33.2085618708        2.8579199038
  H        23.1506611390        1.9573843272        0.0096360578
  H        25.7895234737       19.6682441062       11.9359664114
  H        23.6250205011       19.7016070961       10.6958155938
  H        22.3578892807       16.1875705187       12.8269077036
  H        24.5317800504       16.1627085825       14.0591462116
  H        23.7214753488       17.6650875221        9.2415008688
  H        35.1590573290       15.4294383926       12.0066157537
  H        37.2783347725       15.3872246103       10.6880606948
  H        38.6837472784       18.8214289460       12.8631848281
  H        36.5584381383       18.8463202342       14.1817415445
  H        37.2202644920       17.3671459712        9.2370796292
  H        20.3529017935       17.9587352319       12.6628675377
  H        35.1515565246       15.4377894754        4.0968357200
  H        37.2899553037       15.3617209121        5.3830602412
  H        38.7326010338       18.7543264429        3.1668165275
  H        36.5926920350       18.8082421036        1.8750738681
  H        37.2310571281       17.3489941579        6.7982028384
  H        35.1428817213       26.6911934517        3.3985203546
  H        28.5119320506       21.0941201613       15.9080715454
  H        25.7562150960       19.6264252343        4.1727025340
  H        23.5711170993       19.6818739045        5.3852189647
  H        22.2958257603       16.1848513875        3.2309826788
  H        24.4805637746       16.1538093258        2.0110759948
  H        23.7013715675       17.6556565489        6.8014239768
  H        28.9960722599       21.7266655081        1.7588117019
  H        29.1538734610       21.7528010372       14.5565527205
  H        32.0831471777       18.5645282937        3.0069965599
  H        27.4065510987       19.0855957715        0.0943107669
  H        14.8496672966       19.6485642480        4.1440287915
  H        17.0126385521       19.6937818795        5.3870216646
  H        18.3017903502       16.1862194265        3.2578452923
  H        16.1346252375       16.1566497220        2.0147557335
  H        16.9197949791       17.6928998155        6.8496383901
  H        46.0920614210       15.4337720700        4.0656242374
  H        43.9658006074       15.3635147988        5.3686974993
  H        42.5385342642       18.7952410212        3.2032014823
  H        44.6653168580       18.8405462866        1.8893700474
  H        44.0162320511       17.3073453380        6.8280131293
  H        20.2905236997       17.9244121505        3.4256235034
  H        46.0415111883       15.3873710191       12.0265174790
  H        43.9119440028       15.3246831799       10.7298849298
  H        42.5212567415       18.7931269181       12.8595440474
  H        44.6568129882       18.8415669387       14.1580445814
  H        44.0052998729       17.2988129642        9.2669127356
  H        46.1985546745       26.6823160266       12.6181747273
  H        52.7410398541       21.0625814525        0.1997648467
  H        14.8815816625       19.6735491781       11.8938124598
  H        17.0822807756       19.7421803344       10.7124879235
  H        18.3275715398       16.2162438924       12.8368353370
  H        16.1291346794       16.1718393529       14.0279255603
  H        16.9393967928       17.7046369138        9.2873208791
  H        52.3220095938       21.6731701360       14.2893521175
  H        52.0130037461       21.7019524164        1.5007179754
  H        49.0669174473       18.6077856611       13.1991367069
  H        13.2472263805       19.0164386037       15.9720070752
  H        29.9460474247       12.4910404741        4.2543271591
  H        28.8935110675       10.5453377665        5.4168801312
  H        25.2638737560       11.1889708308        3.2021836328
  H        26.3373283850       13.1195552712        2.0291400062
  H        27.1696531143       11.6751682651        6.7934097739
  H        31.0063810564       22.7623651684        4.0305877615
  H        32.0153832345       24.6419007263        5.3305432803
  H        35.6894063265       24.1614048254        3.1465395313
  H        34.6592298004       22.2913294071        1.8411804164
  H        33.7041019973       23.5697708380        6.7554068766
  H        25.7323922571        8.5908427622        3.4028838915
  H        30.9537656546       22.6822743269       11.9028854604
  H        31.9719476085       24.5595276650       10.6090936105
  H        35.6078534634       24.1263153153       12.8660536359
  H        34.5689849039       22.2586271389       14.1647472590
  H        33.6812628913       23.5493991119        9.1948275608
  H        40.5958378982       17.0895815731       12.6482467036
  H        32.5098545756       14.1504445892        0.2733425679
  H        29.8808069905       12.5257349661       11.9104759583
  H        28.8518704378       10.6180028165       10.6687359877
  H        25.1795659120       11.2038987344       12.8283312727
  H        26.2284764252       13.0998278380       14.0774612688
  H        27.1504896234       11.6933805272        9.2330357759
  H        33.2912183722       14.1930250634       14.4299111642
  H        33.4023284863       14.4171811327        1.6137910298
  H        32.1401491262       18.5333072705       13.1813485296
  H        30.2141543065       14.1867724838        0.0898079383
  H        16.1188262428        2.9632008091        4.1352996007
  H        14.9536124784        4.8202058114        5.3280888727
  H        17.3651711028        7.6859497875        3.2143982906
  H        18.5139206692        5.8183795622        2.0145112475
  H        16.7536222891        5.7396032718        6.7766509378
  H        44.8284576333       32.1401527226        3.9817720576
  H        45.9377146299       30.3412012434        5.3111709919
  H        43.6817658577       27.3781498427        3.1579661019
  H        42.5991122919       29.1899507942        1.8154161241
  H        44.2303840697       29.4367065582        6.7738817241
  H        14.8506840552        8.5460180886        3.3684515375
  H        44.9001079673       32.2339504687       11.9269194031
  H        46.0248899813       30.4128453427       10.6473528286
  H        43.7627032652       27.4840362137       12.8396524466
  H        42.6450512047       29.3176468368       14.1187378205
  H        44.2684538305       29.4704733337        9.2129339262
  H        35.0700697930       26.6169086911       12.6272508521
  H        36.6049384068       35.1340299417        0.1857622382
  H        16.1440855532        3.0128557210       11.8985134873
  H        14.9744970084        4.8561779430       10.6827318878
  H        17.3950348051        7.7472867708       12.7509951712
  H        18.5420878107        5.8933064593       13.9787245981
  H        16.7647426369        5.7555607979        9.2141797698
  H        36.2785578707       34.4822209903       14.2682929086
  H        36.3806450209       34.2092938980        1.5049021732
  H        40.5795254481       33.2018799509       13.1487345086
  H        17.4707335853        1.9470412687       15.9689519276
  H        28.9588981627       19.3907275238        4.4799672046
  H        28.7412828658       18.5560740088       11.9602809534
  H        30.3820124030       15.6842590011       11.9928249316
  H        31.1215133075       15.6185067423        4.5401202803
  H        28.0128366596       17.5297298138        6.7868570225
  H        29.1366500238       15.4820561617        6.6609530323
  H        30.0356735211       19.8008844515       10.0931199060
  H        32.1188496590       16.1498030835       10.1883510524
  H        18.8534254388        0.8689867685        4.3404998982
  H        40.5278135926       35.2291615785       11.9470479190
  H        42.3233490399       34.4181365486       11.5860383333
  H        22.0879607599        0.6920699449        4.3566409343
  H        11.5969969016       18.7128549342        4.3874047834
  H        52.2649579636       18.4311990835       11.6724718079
  H        49.2555363623       16.4772076026       11.5794062855
  H        10.1503136220       15.7982614590        4.2977940478
  H        50.8500691493       17.6923581129       11.9492162550
  H        10.0459619735       17.3946030304        4.0570754992
  H        20.2144945974        0.0022068170        4.0472012532
  H        39.1834373211       36.1243497697       11.6812832026
 Ni        30.7678916633       17.7841212712       10.9901571097
 Ni        30.7373717031       16.3676815893        8.2432329568
 Ni        29.7218829711       18.5260155191        8.0772599313
 Ni        30.0574780069       17.4994756642        5.4104479206
  O        10.6498627847       14.3651520257       13.4806984304
  O        12.6131411400       14.6574954821       14.5787885115
  O        49.1477336550       16.8459994199       15.9846561322
  O        50.3500776518       20.9361378657       13.6431762157
  O        48.3484508639       20.5932752005       14.6609140403
  O        11.0513156999       17.0540415702       14.4955191836
  O        50.3209855096       20.8816723449        2.4119010838
  O        48.3467289130       20.5867094911        1.3322030313
  O        49.5435105764       18.2484724990        2.0733762365
  O        12.3588148855       18.6245980567        0.0048433785
  O        48.6931731254       14.1486324248       14.7461559553
  O         8.2098474199       14.2103740064        1.3276568083
  O        10.7352965934       14.5067080129        2.6694730222
  O        12.5717885714       14.5828021904        1.3336009886
  O        22.8448571295        2.0437708624       13.4818929210
  O        21.6054185032        3.5924783156       14.5845667787
  O        42.0580912862       34.1371914257       15.9738177590
  O        37.9815340525       33.1376462515       13.5676281225
  O        39.2180157083       31.5760598755       14.6614368140
  O        20.3083514812        1.0395611964       14.4969096130
  O        38.0252008068       33.1869489804        2.4198035834
  O        39.2191725200       31.5840049285        1.3315567433
  O        40.6523265758       33.7693194811        2.0653296617
  O        18.2555199572        1.3760109351        0.0018837999
  O        44.6222163800       35.1005460380       14.7536090794
  O        24.2054015271       -0.0000277465        1.3259237406
  O        22.7531995363        2.0575199796        2.5888889126
  O        21.6248944526        3.5965216509        1.3484290437
  O        27.4878834958       18.7481861152       13.4916315636
  O        26.7587466965       16.9335782889       14.6520710784
  O        30.6697883966       19.4122837936        0.0812803959
  O        33.5781286850       16.2810076370       13.6589956080
  O        34.2741232601       18.1664429810       14.7326966057
  O        29.5690806498       17.0646226911       14.5838356187
  O        33.5524006731       16.3405401562        2.4239217058
  O        34.3007400066       18.2385424468        1.4138882567
  O        31.6493088999       18.3194881536        2.1721277897
  O        30.3177557407       15.1524511927        0.0936365650
  O        28.5544929250       21.0407023054       14.8448875061
  O        28.5147605660       20.9570753611        1.4100376493
  O        27.4566580941       18.6793988741        2.6665697459
  O        26.6935974010       16.9305470936        1.4188313666
  O        13.1486730654       18.6930353880        2.5925325107
  O        13.9192768347       16.9161961260        1.4100667535
  O        50.5957079730       19.3501564699        0.0256449928
  O        47.6830070354       16.3269949801        2.4222701394
  O        46.9504233313       18.1755297357        1.3306910878
  O        11.0694148657       17.0157155929        1.4948372505
  O        47.6756311911       16.3359001957       13.6477080652
  O        46.9261328645       18.2357718699       14.6586878273
  O        49.5683669190       18.3177300020       13.9771722326
  O        10.3185149465       15.1002790308        0.0021683523
  O        52.6707294779       21.0279167299        1.2469312456
  O        12.1468105424       20.8911912205       14.6680962233
  O        13.1080291109       18.6136176952       13.3205382277
  O        13.9566395330       16.9866673186       14.6606337779
  O        29.9645583064       14.5000462301        2.7469923779
  O        28.0809743715       14.6568112963        1.4924135616
  O        32.0861061910       16.8746297831        0.0997723529
  O        30.9677627867       20.9561316975        2.4129466099
  O        32.9488894727       20.6018741826        1.3448749719
  O        29.5624382856       17.0855210888        1.5828952080
  O        30.9046014904       20.8764391691       13.5812374561
  O        32.8798434813       20.5855454952       14.6630536175
  O        31.6848735705       18.2531210050       13.9937807406
  O        28.2893996661       18.6814548156        0.0849444214
  O        32.4883634299       14.2160197930        1.3412868060
  O        32.4011220800       14.2128253267       14.8185663242
  O        29.8710349928       14.5006138224       13.4120300128
  O        28.0391809597       14.5864761775       14.7470909768
  O        17.8892118107        1.9666665067        2.6679232259
  O        18.9562914362        3.5271626668        1.4131027729
  O        39.1687453500       34.1388543163        0.0022671285
  O        43.2802283251       33.0589465978        2.3367567698
  O        42.0345348684       31.5064565107        1.2466863095
  O        20.3177087611        1.0366705241        1.4853535153
  O        43.2760928542       33.1825736886       13.5698276559
  O        42.0052873443       31.5840953206       14.5778792552
  O        40.5789919945       33.7748802770       13.9306354451
  O        22.3672422071        1.3846084405        0.0030510962
  O        36.6726900763       35.0998368757        1.2383559533
  O        16.4454796378        0.0642394619       14.6631496435
  O        17.9364654743        2.0433717443       13.3212775248
  O        18.9190544810        3.5930954815       14.6608662439
  O        29.6616674013       18.8269105129       12.1473246516
  O        29.7770104912       19.0433287684        4.0789453076
  O        31.0997612552       16.3306520232       12.1551005807
  O        31.1770355813       16.4815068727        4.0865017840
  O        31.7792979208       16.9181597816        9.6866924249
  O        30.0397412363       15.8335699040        6.5796582577
  O        30.5754627472       19.1139394364        9.6545087524
  O        28.6402597713       18.2456353011        6.5854861005
  O        39.4567616202       35.2438085380       11.9968585653
  O        19.1413611277        0.0045857958        3.9956840220
  O        41.9696677044       35.1726951758       12.0821516508
  O        21.6914377074       -0.0692648223        3.9010153199
  O        51.3650939198       18.6143321714       12.0003997217
  O        10.7511191780       18.7472081169        3.9100320710
  O        50.0800482268       16.4128460068       12.0865684459
  O         9.5244366889       16.4830977507        3.9962920575
 Zr         9.2961662804       16.0529675847       14.1772174495
 Zr        49.8357164030       16.0069246294        1.7516766712
 Zr        22.0728849460        0.0291762265       14.1841531999
 Zr        42.4606295273       35.1527483562        1.8059787988
 Zr        29.6162415240       19.0977974735       14.3153806517
 Zr        29.5779886747       19.1875914956        1.9154667151
 Zr        11.0374081701       19.0522014030        1.8327843578
 Zr        11.0431584585       19.1550160661       14.2462225946
 Zr        31.3272097766       16.1201969536        1.9221568553
 Zr        31.3988482270       16.0246222723       14.3164673280
 Zr        18.6008148918       -0.0018915262        1.7685046194
 Zr        18.5061483123       -0.0084232161       14.2085405918
 Zr        12.3011832776       16.3236565493       15.9853092274
 Zr        48.6152067973       18.8329195022        0.0155006490
 Zr        20.3148104840        2.4726704349       15.9856959437
 Zr        40.6429072702       32.6862197314       15.9730444701
 Zr        28.3488488299       16.3530732802        0.0910725645
 Zr        32.6287585554       18.8486774173        0.0655307060
  H        29.7207625205       20.6181273918        7.6546768744
  H        28.9685760770       20.5845091127        7.7312567958
  H        31.5778558548       14.8343366240        8.2520265872
  H        30.9242683617       14.7188121774        8.7117326101
