     572
 i =      180, E =     -4746.7829844400
  C        11.8585289582       14.0535617291       13.7364833478
  C        12.4560099160       12.8905411141       13.0182166627
  C        11.7044415491       12.1718809731       12.0762599150
  C        12.2808146072       11.1096756654       11.3838894277
  C        13.6212744391       10.7396173495       11.6118740249
  C        14.3542690281       11.4428641873       12.5857134840
  C        13.7813851811       12.5078256677       13.2772445884
  C        14.2608630766        9.6489903442       10.8384795635
  C        14.2563011061        9.6569767320        9.4167787514
  C        13.7431529186       10.7591017396        8.6628573235
  C        49.1265104569       21.2332677087       13.8746416768
  C        48.5497344355       22.4010968520       13.1475651612
  C        49.2998740874       23.0685999076       12.1667550663
  C        48.7329444606       24.1077074391       11.4335376907
  C        47.4022857039       24.5091256944       11.6619137966
  C        46.6711716159       23.8600004327       12.6751525166
  C        47.2336240154       22.8151198948       13.4045401994
  C        46.7721500093       25.5868566013       10.8646046769
  C        46.7613710064       25.5573263518        9.4428391409
  C        47.2613788553       24.4422614290        8.6993527422
  C        14.8603106463        8.5706745940        8.7035171341
  C        14.8915745954        8.5969866969       11.5151238925
  C        49.1130796108       21.2034185640        2.1504456174
  C        48.5277507094       22.3647243886        2.8775642437
  C        49.2670685649       23.0256080418        3.8703203592
  C        48.6907451159       24.0601733657        4.6017471433
  C        47.3602495765       24.4567916064        4.3636605610
  C        46.6397067895       23.8116589484        3.3403699933
  C        47.2132458533       22.7757229449        2.6086211903
  C        46.7218351070       25.5317618700        5.1547057562
  C        46.7337490429       25.5282028821        6.5764082709
  C        47.2491473992       24.4289768297        7.3327986076
  C        40.6161220713       17.0894584698        7.3208159028
  C        40.6303157291       17.1056691237        4.5109151278
  C        11.8828222807       14.0865280752        2.2905636957
  C        12.4721011678       12.9106182263        2.9947083535
  C        11.7146716039       12.1776298956        3.9210527169
  C        12.2812458463       11.0951737031        4.5894879711
  C        13.6199763179       10.7212443967        4.3574804955
  C        14.3577977693       11.4365069854        3.3963300750
  C        13.7923885921       12.5176706709        2.7236205778
  C        14.2536306748        9.6245402388        5.1279026938
  C        14.2524758723        9.6446047656        6.5497404984
  C        13.7426148306       10.7535649548        7.2968097265
  C        22.5107491533        3.2447809840       13.7476123583
  C        23.2223862934        4.3515362793       13.0470051933
  C        24.2170108733        4.0741161776       12.0976794137
  C        24.8402371929        5.1155350148       11.4149059964
  C        24.4843618957        6.4564271204       11.6614336490
  C        23.5180827901        6.7253873806       12.6478089802
  C        22.8902468295        5.6858192350       13.3288725294
  C        25.0857118767        7.5649194136       10.8852746190
  C        25.0551083632        7.5590221968        9.4637677582
  C        24.3533657715        6.5590879486        8.7181043898
  C        38.3015313607       31.9287849457       13.8446331451
  C        37.5695569988       30.8394870868       13.1371385464
  C        36.6069931973       31.1436998852       12.1622853951
  C        35.9874194823       30.1238111372       11.4454413471
  C        36.3158587078       28.7743791317       11.6811276689
  C        37.2483274691       28.4775914934       12.6930162074
  C        37.8717273440       29.4961809032       13.4091085953
  C        35.7137599025       27.6831350239       10.8826160618
  C        35.7452975527       27.7000309994        9.4611247924
  C        36.4483797034       28.7052724600        8.7250690432
  C        25.6753492798        8.6301534091        8.7433540002
  C        25.6829037205        8.6401198629       11.5553610292
  C        38.3289682176       31.9623374199        2.1616696457
  C        37.6076652695       30.8899573858        2.9043139748
  C        36.6773554119       31.1996873172        3.9082296892
  C        36.0666726624       30.1819810626        4.6382781522
  C        36.3722490680       28.8292081730        4.3880225019
  C        37.2806245726       28.5294502091        3.3543052000
  C        37.8932399223       29.5436053332        2.6253881237
  C        35.7635867566       27.7303728274        5.1717545327
  C        35.7707309926       27.7243487631        6.5938217927
  C        36.4601817256       28.7171706831        7.3584900206
  C        46.1357030381       26.6208198903        7.2865348596
  C        46.0877958536       26.5800621674        4.4786428751
  C        22.4596247210        3.2555438424        2.2623258879
  C        23.1511232367        4.3654940474        2.9852616481
  C        24.1521052112        4.0818100588        3.9277659934
  C        24.7770720956        5.1138525597        4.6234821763
  C        24.4210469116        6.4586459908        4.3985553545
  C        23.4431921451        6.7356171921        3.4245697034
  C        22.8134194943        5.7038369974        2.7296285935
  C        25.0483997059        7.5585468759        5.1724175458
  C        25.0366812496        7.5549032531        6.5950487266
  C        24.3425012522        6.5583758383        7.3514179049
  C        26.6115013819       17.8549284247       13.7814582154
  C        25.3061978644       17.8984720154       13.0569130124
  C        25.0413992620       18.8985990844       12.1075818873
  C        23.8300369616       18.9133429764       11.4190662682
  C        22.8458982821       17.9330083197       11.6595535068
  C        23.1061778353       16.9561396052       12.6393615356
  C        24.3201864622       16.9344641375       13.3241314006
  C        21.5737040975       17.9166750734       10.8939431198
  C        21.5758771609       17.8974740677        9.4715072796
  C        22.7824276346       17.7754756557        8.7123156877
  C        34.4220171311       17.2194184252       13.9073822737
  C        35.7129702710       17.1532997889       13.1639614926
  C        35.9106217563       16.1855948548       12.1666625804
  C        37.0935982787       16.1628551541       11.4327191108
  C        38.1113770088       17.1063867368       11.6750891711
  C        37.9161277278       18.0534919511       12.6987707519
  C        36.7313015437       18.0815374021       13.4303570826
  C        39.3663707948       17.1094557575       10.8881470128
  C        39.3609291660       17.1195627784        9.4658654292
  C        38.1537647470       17.2450054532        8.7087096522
  C        20.3300178610       17.9163021772        8.7617203905
  C        20.3485289669       17.9183303199       11.5752855104
  C        34.4377476577       17.2376229980        2.1975210503
  C        35.7379380648       17.1365952085        2.9201558503
  C        35.9400802119       16.1631830784        3.9100367958
  C        37.1311249549       16.1330918825        4.6315929083
  C        38.1493222973       17.0749075351        4.3839057130
  C        37.9531186075       18.0204645826        3.3596517080
  C        36.7616987092       18.0560312502        2.6414981465
  C        39.3989981934       17.0922869826        5.1771494993
  C        39.3777354677       17.1112495161        6.5988467276
  C        38.1618172998       17.2389287207        7.3420271306
  C        35.1423960531       26.6432426873        7.2966828317
  C        35.1761176921       26.6590081129        4.4874195027
  C        26.5736214255       17.8276617930        2.3307258913
  C        25.2592879602       17.8708828745        3.0381437919
  C        24.9938706272       18.8750915442        3.9815367264
  C        23.7762023959       18.8984387001        4.6559506914
  C        22.7941758682       17.9180261518        4.4095834993
  C        23.0539421548       16.9388014318        3.4337884332
  C        24.2726196160       16.9129051303        2.7584106968
  C        21.5299530067       17.8980521613        5.1816341941
  C        21.5530420164       17.8861498485        6.6031056854
  C        22.7709119026       17.7697098159        7.3459816034
  C        14.0465933318       17.8285849878        2.2938368752
  C        15.3516161357       17.8846332993        3.0189595431
  C        15.6093470190       18.8865167302        3.9676062770
  C        16.8186965656       18.9057018473        4.6601140166
  C        17.8046324172       17.9258696721        4.4259228949
  C        17.5517864612       16.9483560247        3.4450102548
  C        16.3418367148       16.9245483791        2.7542946796
  C        19.0736740239       17.9065607782        5.1952252514
  C        19.0715596948       17.9001958050        6.6177053820
  C        17.8639116101       17.8000610510        7.3778355055
  C        46.8017786719       17.2171383331        2.1638498907
  C        45.5093685806       17.1488085288        2.9071288343
  C        45.3050882215       16.1669475746        3.8894459973
  C        44.1217069404       16.1398158018        4.6232101388
  C        43.1102384575       17.0943348992        4.3982111053
  C        43.3116776007       18.0556190094        3.3888364260
  C        44.4959431541       18.0866751216        2.6557567261
  C        41.8559325593       17.0980924166        5.1877730035
  C        41.8624107680       17.1005751989        6.6103832833
  C        43.0715201096       17.1972043330        7.3686616165
  C        20.3178122788       17.9096594978        7.3269542820
  C        20.2984355225       17.8882755539        4.5139122709
  C        46.7828502883       17.2313153692       13.8823788935
  C        45.4791609163       17.1241355810       13.1660403713
  C        45.2602816203       16.1238446702       12.2062949545
  C        44.0714224495       16.0935778760       11.4809316290
  C        43.0699538953       17.0604879917       11.6969288249
  C        43.2796134349       18.0309809523       12.6948327813
  C        44.4695551347       18.0675443991       13.4155364441
  C        41.8220331804       17.0790678648       10.9004579358
  C        41.8451467451       17.0895525352        9.4788503493
  C        43.0634008831       17.1890866730        8.7355101913
  C        46.1534688309       26.6372582879        8.7210794181
  C        46.1620890707       26.6559137907       11.5307322281
  C        14.0442858602       17.8299779808       13.7029581558
  C        15.3645222846       17.8998253379       13.0104344362
  C        15.6411593603       18.9151382851       12.0828853173
  C        16.8700895692       18.9483188965       11.4277120162
  C        17.8493226493       17.9652011723       11.6746297296
  C        17.5792228779       16.9780553629       12.6396005112
  C        16.3524366284       16.9444749683       13.2983095926
  C        19.1169989438       17.9377319548       10.9068605664
  C        19.0943570781       17.9150594428        9.4854577528
  C        17.8750130352       17.8068389661        8.7438652523
  C        28.8088327228       14.0910518227        2.3966971404
  C        28.1936205651       12.9188750149        3.0831087276
  C        28.9110670178       12.1799882724        4.0355200997
  C        28.3071716304       11.1074504171        4.6868584524
  C        26.9723572713       10.7494622630        4.4090809022
  C        26.2772964624       11.4680274045        3.4198522360
  C        26.8783842324       12.5412705674        2.7675685721
  C        26.2990007071        9.6718520841        5.1692719417
  C        26.2805226192        9.7018158333        6.5900098651
  C        26.7780778438       10.8179096576        7.3345048281
  C        32.1801633166       21.2408668509        2.1517511459
  C        32.7750197714       22.4066898560        2.8687564966
  C        32.0282246514       23.0843215882        3.8448272600
  C        32.5998733106       24.1232003554        4.5727145172
  C        33.9338588609       24.5130018569        4.3451242411
  C        34.6628246928       23.8546864428        3.3368296474
  C        34.0938507146       22.8098376756        2.6111164182
  C        34.5627129328       25.5880238369        5.1459957002
  C        34.5548248173       25.5579293355        6.5676586285
  C        34.0524005924       24.4390197247        7.3040807433
  C        25.6709375086        8.6242049609        7.3090293377
  C        25.6655940207        8.6193272363        4.4958465683
  C        32.1166360899       21.1935051859       13.8420066194
  C        32.7003519120       22.3527764506       13.1069464419
  C        31.9698912676       23.0045974690       12.1015177392
  C        32.5451773441       24.0453119596       11.3768172361
  C        33.8661252709       24.4611098013       11.6359966323
  C        34.5781841684       23.8229393909       12.6696267587
  C        34.0064644846       22.7795679902       13.3926792170
  C        34.5048569293       25.5457105036       10.8558613959
  C        34.5247558462       25.5363674090        9.4337793927
  C        34.0377844233       24.4286686703        8.6706426002
  C        40.6070433289       17.0889203067        8.7559258372
  C        40.5911685225       17.1057067962       11.5663156383
  C        28.7169610228       14.0948309105       13.7807709050
  C        28.1098908476       12.9461586551       13.0491303781
  C        28.8414805034       12.2525993600       12.0727905199
  C        28.2612005215       11.1900652703       11.3847171033
  C        26.9333331675       10.7962848244       11.6459646701
  C        26.2198533825       11.4768110099       12.6505657875
  C        26.7987467659       12.5384319828       13.3422142510
  C        26.2906668699        9.7044455926       10.8768893552
  C        26.2774322315        9.7190193608        9.4551950655
  C        26.7737910918       10.8278824509        8.7001291582
  C        18.1353468722        3.1808933960        2.3222280108
  C        17.4060530589        4.2781792583        3.0209150636
  C        16.3904115025        3.9998134121        3.9484967316
  C        15.7426525512        5.0397894630        4.6119860541
  C        16.0944737277        6.3835119161        4.3722273230
  C        17.0837646131        6.6530416521        3.4083766568
  C        17.7328727122        5.6157001597        2.7433361932
  C        15.4701404224        7.4912356528        5.1352341430
  C        15.4855312453        7.4906451879        6.5569433865
  C        16.1871437220        6.4970728377        7.3101177008
  C        42.9458705957       31.8594454918        2.0779741440
  C        43.6462312787       30.7718076011        2.8219241092
  C        44.5919985683       31.0931089435        3.8077832978
  C        45.1977253625       30.0875455310        4.5553998983
  C        44.8710379249       28.7345081458        4.3407519237
  C        43.9449270270       28.4201829435        3.3278023293
  C        43.3360945329       29.4253406522        2.5797967241
  C        45.4886681429       27.6552193787        5.1439241490
  C        45.4930169724       27.6809529243        6.5656111268
  C        44.8059326187       28.6890111340        7.3122152825
  C        14.8565544653        8.5631400845        7.2692939288
  C        14.8747555800        8.5629367861        4.4566299327
  C        42.9464617917       31.9615007109       13.8038524654
  C        43.6915971637       30.8854032259       13.0903011862
  C        44.6564137272       31.1912761542       12.1181998720
  C        45.2779002951       30.1716709703       11.4004815792
  C        44.9538486479       28.8213716555       11.6378715923
  C        44.0200748630       28.5237317565       12.6483815253
  C        43.3918535825       29.5405125136       13.3605690193
  C        45.5629587209       27.7239861186       10.8526545820
  C        45.5334372488       27.7173840570        9.4313569975
  C        44.8271911816       28.7076571528        8.6783973124
  C        35.1282592539       26.6315853860        8.7314544158
  C        35.1110166824       26.6055718987       11.5412961852
  C        18.1484499101        3.2468734234       13.7015021068
  C        17.4298449733        4.3437669931       12.9921811123
  C        16.4146832891        4.0525164077       12.0685688336
  C        15.7663838021        5.0831644616       11.3931736521
  C        16.1210172976        6.4283908270       11.6159521694
  C        17.1123867299        6.7117481634       12.5732191190
  C        17.7600430401        5.6828207740       13.2529859777
  C        15.4905259181        7.5241207319       10.8435372852
  C        15.4965393309        7.5075784700        9.4224048325
  C        16.1933544179        6.5059018018        8.6757209560
  H        10.6723939140       12.4661958100       11.8990451561
  H        11.6945828901       10.5513984583       10.6571453486
  H        15.3911821454       11.1679942692       12.7677005204
  H        14.3506847695       13.0707810484       14.0130118219
  H        13.3760429381       11.6311927045        9.1961545153
  H        50.3226620538       22.7487301559       11.9821919058
  H        49.3194729834       24.6231335788       10.6761040883
  H        45.6415447854       24.1604899553       12.8580425001
  H        46.6624275591       22.2896725081       14.1663556250
  H        47.6297581488       23.5758093056        9.2410263757
  H        14.8717487428        8.5881162960       12.6034270031
  H        50.2871671701       22.7028831407        4.0651311568
  H        49.2691745131       24.5758115511        5.3650971527
  H        45.6102162026       24.1087060636        3.1514632356
  H        46.6522439044       22.2533553394        1.8373274276
  H        47.6078413871       23.5518111893        6.8019204083
  H        40.6352400634       17.0695283717        3.4231481556
  H        48.6868693121       14.0950393898       15.7947791279
  H        10.6812642152       12.4668436317        4.0986101030
  H        11.6895040004       10.5249462058        5.3023607442
  H        15.3931432659       11.1584200960        3.2102172215
  H        14.3646025280       13.0868456307        1.9948435993
  H        13.3757027429       11.6221364660        6.7581613198
  H        47.9299855107       14.2183098063        1.7159065785
  H        47.7798624399       14.3734816247       14.4899010167
  H        49.0823665016       18.5519361890        2.8720779017
  H        10.4155542678       14.1344574552        0.0037955846
  H        24.4792788059        3.0361563908       11.9051614818
  H        25.6116753712        4.9002708537       10.6787180564
  H        23.2358847548        7.7576273086       12.8444011919
  H        22.1218010427        5.8838430930       14.0721023401
  H        23.7928376663        5.8020680412        9.2588182974
  H        36.3694176106       32.1869901680       11.9683365039
  H        35.2409713102       30.3633368830       10.6913042450
  H        37.5094543172       27.4384168742       12.8821810099
  H        38.6173370171       29.2746702266       14.1690389462
  H        37.0105472096       29.4566037351        9.2719504240
  H        25.7215047311        8.6215794869       12.6430437048
  H        36.4536190450       32.2440789554        4.1136107213
  H        35.3394718341       30.4274955546        5.4090672618
  H        37.5284234301       27.4890244698        3.1547090601
  H        38.6168189774       29.3172081912        1.8460859761
  H        37.0325395090       29.4771542952        6.8344220333
  H        46.1089518785       26.5873237093        3.3906014190
  H        44.6682079807       35.1161515590       15.8087701547
  H        24.4309146840        3.0441413978        4.0966408904
  H        25.5569825147        4.8875054382        5.3474121579
  H        23.1570981717        7.7695194503        3.2424237592
  H        22.0424029465        5.9140757020        1.9920107187
  H        23.7729247234        5.8014024600        6.8200799766
  H        44.9536451632       34.3902181015        1.7001798633
  H        44.9014734986       34.2066921266       14.4854689204
  H        40.6657222037       33.2087419993        2.8580095724
  H        23.1502756780        1.9578156701        0.0101093604
  H        25.7945584850       19.6619320647       11.9256352860
  H        23.6298901350       19.6942759915       10.6885442279
  H        22.3579106300       16.1904679530       12.8339347612
  H        24.5320387520       16.1661767015       14.0641395657
  H        23.7230864535       17.6551159528        9.2419835247
  H        35.1207118027       15.4632482180       11.9746581147
  H        37.2441818747       15.4053353017       10.6667339359
  H        38.6926147685       18.7910952441       12.8907120148
  H        36.5653106690       18.8283127846       14.2033391004
  H        37.2147543584       17.3787912764        9.2383324404
  H        20.3539485300       17.9572289712       12.6631923968
  H        35.1463681744       15.4481854467        4.1139406005
  H        37.2844535211       15.3757603282        5.3972157614
  H        38.7314646070       18.7545493298        3.1619467338
  H        36.5908764137       18.8056924097        1.8727494803
  H        37.2288002332       17.3673619489        6.8008014768
  H        35.1495177762       26.6854795848        3.3997117128
  H        28.5089479377       21.0899200546       15.8905241187
  H        25.7540903903       19.6307965818        4.1662833657
  H        23.5697681612       19.6814303796        5.3824635249
  H        22.3040281062       16.1750822268        3.2379724888
  H        24.4891508955       16.1450135063        2.0195932217
  H        23.7026655807       17.6450509082        6.8024202121
  H        29.0082105570       21.7236625715        1.7472815205
  H        29.1590672979       21.7473404857       14.5496681798
  H        32.0658824502       18.5597112110        3.0070922499
  H        27.4082175501       19.0823008354        0.0931071814
  H        14.8513518611       19.6456958674        4.1472225193
  H        17.0144822290       19.6887573190        5.3895240617
  H        18.3023497271       16.1837790252        3.2551466112
  H        16.1349950081       16.1564171487        2.0128947594
  H        16.9218462992       17.6854939756        6.8495488746
  H        46.0910926328       15.4378307522        4.0716426611
  H        43.9663790854       15.3701910615        5.3761428276
  H        42.5401043856       18.8014612293        3.2091552337
  H        44.6652230790       18.8439437584        1.8937295333
  H        44.0130809103       17.3096153915        6.8387708568
  H        20.2931788736       17.9204222345        3.4258379291
  H        46.0375508143       15.3837283841       12.0300751387
  H        43.9060438475       15.3165256173       10.7377839231
  H        42.5126640031       18.7827743093       12.8692318959
  H        44.6505528921       18.8361487317       14.1629641029
  H        43.9988646515       17.2940565347        9.2774099018
  H        46.1986680084       26.6823357348       12.6181896682
  H        52.7410375125       21.0626105562        0.1997823489
  H        14.8834558589       19.6720455220       11.8923980459
  H        17.0843380554       19.7386709637       10.7114997475
  H        18.3266971301       16.2124536229       12.8371765327
  H        16.1280546962       16.1700222616       14.0277170768
  H        16.9412679953       17.6975726867        9.2872813425
  H        52.3221217797       21.6731551622       14.2892720939
  H        52.0130642697       21.7019474701        1.5008002537
  H        49.0664650738       18.6075852224       13.1992539410
  H        13.2471664700       19.0164336938       15.9719634223
  H        29.9397304301       12.4600736886        4.2512719626
  H        28.8646214185       10.5340962260        5.4243867135
  H        25.2460731944       11.2010984923        3.1979519199
  H        26.3391533953       13.1179196151        2.0201192668
  H        27.1385732042       11.6876041390        6.7935991043
  H        31.0037166037       22.7704227109        4.0288113383
  H        32.0164202033       24.6467646996        5.3268519609
  H        35.6953572355       24.1462297690        3.1556689254
  H        34.6629428301       22.2756640377        1.8537596334
  H        33.7041774016       23.5672429572        6.7574634530
  H        25.6995791003        8.5971567678        3.4080161696
  H        30.9544549954       22.6746529481       11.8950258552
  H        31.9721724325       24.5523289651       10.6036408459
  H        35.6007701907       24.1324847804       12.8753249380
  H        34.5617774541       22.2651932936       14.1734712150
  H        33.6792456219       23.5479804089        9.1959826096
  H        40.5852315438       17.0707864408       12.6541205347
  H        32.5099471180       14.1537006937        0.2629846530
  H        29.8668119665       12.5549547151       11.8721111512
  H        28.8362264434       10.6476740044       10.6374096662
  H        25.1925927411       11.1849874023       12.8590614210
  H        26.2450877997       13.0789781130       14.1062587842
  H        27.1293078221       11.7060755666        9.2311037697
  H        33.2877458466       14.1856819782       14.4227703251
  H        33.4054220881       14.4077895387        1.6080883398
  H        32.1310203780       18.5257322794       13.1666708840
  H        30.2146438509       14.1882252421        0.0839324728
  H        16.1184443777        2.9632939030        4.1349575025
  H        14.9532383275        4.8203828061        5.3276794136
  H        17.3660862202        7.6859313546        3.2151848924
  H        18.5148137261        5.8183053922        2.0153750233
  H        16.7536748594        5.7397147243        6.7766156964
  H        44.8284639675       32.1401704881        3.9818254651
  H        45.9377690727       30.3412479227        5.3111870117
  H        43.6819313795       27.3781503350        3.1579232979
  H        42.5992401144       29.1899874707        1.8153682630
  H        44.2305460978       29.4367446405        6.7738986663
  H        14.8508374910        8.5460475459        3.3684146935
  H        44.9001570123       32.2339382446       11.9269218372
  H        46.0249536883       30.4128627474       10.6473810321
  H        43.7627818692       27.4840334676       12.8396718783
  H        42.6451315107       29.3176856902       14.1187831711
  H        44.2686142485       29.4704981114        9.2129746878
  H        35.0669845868       26.6171659645       12.6287262961
  H        36.6050647543       35.1339810476        0.1858124593
  H        16.1436174318        3.0129337813       11.8988356832
  H        14.9740828560        4.8563181512       10.6830610564
  H        17.3958740904        7.7472174192       12.7501195529
  H        18.5428841417        5.8932084263       13.9778040682
  H        16.7647429902        5.7556463559        9.2141862068
  H        36.2785733235       34.4822129764       14.2682139000
  H        36.3809687971       34.2091221666        1.5048486896
  H        40.5797372459       33.2019432284       13.1486391515
  H        17.4706398352        1.9469843707       15.9689590551
  H        29.1575868603       19.4926331516        4.5537406122
  H        28.7110218475       18.5986491247       11.9165420426
  H        30.3912882003       15.6723450510       11.9119454706
  H        31.2002263967       15.6748643137        4.6042412553
  H        28.0108494007       17.9605912467        6.4678418671
  H        29.2915807891       15.4623479822        6.3862570054
  H        29.9406021268       19.8342966365       10.1397474946
  H        32.0001976398       16.1000106569       10.2180767506
  H        18.8538367703        0.8691580497        4.3404379781
  H        40.5278794569       35.2290445440       11.9470087460
  H        42.3238735227       34.4187035633       11.5855955589
  H        22.0879649149        0.6921657052        4.3565287127
  H        11.5971093877       18.7128652961        4.3873303624
  H        52.2650400885       18.4311707897       11.6725904910
  H        49.2557705732       16.4769551201       11.5790875391
  H        10.1504608193       15.7981422918        4.2975742803
  H        50.8500852731       17.6924191121       11.9492538356
  H        10.0460962750       17.3945055872        4.0570613301
  H        20.2151058118        0.0023381442        4.0470659596
  H        39.1836002689       36.1244226222       11.6814041977
 Ni        30.6580046238       17.7902277907       10.8309437032
 Ni        30.6506453663       16.3319884181        8.2353498056
 Ni        29.5918452293       18.6879326109        8.0766715609
 Ni        29.9787847332       17.4892531898        5.2454185255
  O        10.6498327519       14.3651842363       13.4807270002
  O        12.6131026775       14.6575338563       14.5787898611
  O        49.1476256305       16.8460194528       15.9846324168
  O        50.3501005231       20.9360674688       13.6431787168
  O        48.3484770314       20.5932463618       14.6609466765
  O        11.0512454260       17.0540449793       14.4954984110
  O        50.3209864029       20.8816186055        2.4118802361
  O        48.3467364983       20.5866899703        1.3321770167
  O        49.5434330888       18.2484446090        2.0733693916
  O        12.3587661524       18.6246009765        0.0048520263
  O        48.6931435336       14.1486912982       14.7461168689
  O         8.2097816986       14.2104697013        1.3277021344
  O        10.7353174580       14.5067703287        2.6694302128
  O        12.5717647515       14.5828303704        1.3335790779
  O        22.8448548091        2.0440568090       13.4819574865
  O        21.6050088617        3.5921725236       14.5849876498
  O        42.0581362435       34.1372676357       15.9737470017
  O        37.9814592121       33.1372221113       13.5675097542
  O        39.2180586450       31.5759535218       14.6614635817
  O        20.3083658084        1.0393611188       14.4968009625
  O        38.0248957077       33.1863037531        2.4200706631
  O        39.2191471155       31.5838669323        1.3315840614
  O        40.6523019513       33.7693164704        2.0653014329
  O        18.2554263495        1.3759595061        0.0018611158
  O        44.6222261972       35.1005444187       14.7535864403
  O        24.2054009093        0.0000153672        1.3259188314
  O        22.7528862878        2.0579729360        2.5889097162
  O        21.6239497371        3.5956093416        1.3468048087
  O        27.4906600761       18.7481816374       13.4900357067
  O        26.7613567838       16.9335388288       14.6514544164
  O        30.6651674395       19.4098419843        0.0712476374
  O        33.5412096102       16.3297775665       13.6490540264
  O        34.2740951744       18.1770632164       14.7403705793
  O        29.5689580600       17.0659016274       14.5796419387
  O        33.5495984131       16.3396852410        2.4239267309
  O        34.2993580821       18.2371053549        1.4139446035
  O        31.6485070717       18.3169327882        2.1630614726
  O        30.3189191055       15.1540631071        0.0875486080
  O        28.5552792683       21.0369615016       14.8336678052
  O        28.5152262116       20.9560572860        1.4102481537
  O        27.4594426674       18.6796889629        2.6647228708
  O        26.6949037306       16.9298519471        1.4179203327
  O        13.1491757203       18.6928544923        2.5927146313
  O        13.9193953740       16.9161317007        1.4100517211
  O        50.5955474373       19.3501049809        0.0256367134
  O        47.6822414456       16.3273046361        2.4226039648
  O        46.9499558717       18.1755389385        1.3309730063
  O        11.0693449523       17.0157175234        1.4948340743
  O        47.6744899911       16.3359599165       13.6475425484
  O        46.9252420284       18.2358309799       14.6583110191
  O        49.5682191153       18.3176855783       13.9771563617
  O        10.3184429672       15.1003342559        0.0022060938
  O        52.6707664172       21.0279143902        1.2469430314
  O        12.1468027817       20.8911418599       14.6680780506
  O        13.1083141398       18.6135733359       13.3204879669
  O        13.9567284344       16.9866797108       14.6606873588
  O        29.9936045562       14.4415943549        2.7355044986
  O        28.0898152246       14.6542535590        1.4997080431
  O        32.0765344690       16.8675099575        0.0887892264
  O        30.9646244341       20.9527281624        2.4144218912
  O        32.9460806316       20.6013902334        1.3448192146
  O        29.5630343088       17.0798559990        1.5824193343
  O        30.9021055365       20.8731985951       13.5796953805
  O        32.8777342718       20.5847178794       14.6633687546
  O        31.6792541462       18.2545596069       13.9838157784
  O        28.2921014005       18.6802606758        0.0796412170
  O        32.4896144097       14.2154058329        1.3355110363
  O        32.3995373884       14.2184403455       14.8148516188
  O        29.8723847071       14.5038160577       13.4106836611
  O        28.0405740818       14.5870691969       14.7467792378
  O        17.8891911402        1.9666223380        2.6679525086
  O        18.9561700387        3.5271515918        1.4130973215
  O        39.1686897729       34.1387726012        0.0022614551
  O        43.2802407249       33.0589232758        2.3367865274
  O        42.0345229998       31.5064563532        1.2466946752
  O        20.3176575065        1.0366469043        1.4853774553
  O        43.2760790085       33.1825439238       13.5697598488
  O        42.0052838118       31.5840872308       14.5778663643
  O        40.5789597259       33.7748453013       13.9306068773
  O        22.3672432237        1.3844979463        0.0029646633
  O        36.6727174937       35.0997828964        1.2384077666
  O        16.4454967469        0.0641826663       14.6631307349
  O        17.9364123425        2.0433375017       13.3212681464
  O        18.9188919187        3.5931373964       14.6608063426
  O        29.6475603864       18.8310194693       12.0765303603
  O        29.8269961216       18.9734277423        4.0692253675
  O        31.0859355827       16.3428309965       12.0743978449
  O        31.1694051843       16.4997409552        4.0817692403
  O        31.7245132540       16.8466370245        9.6457435181
  O        30.1167862412       15.9771230495        6.4248606948
  O        30.4687167453       19.2151142395        9.5943055287
  O        28.8435684786       18.4639227899        6.4107478526
  O        39.4567727635       35.2437818796       11.9968574669
  O        19.1417448101        0.0047345835        3.9956432070
  O        41.9696354416       35.1727392483       12.0820894297
  O        21.6914398794       -0.0692378103        3.9009813882
  O        51.3651444782       18.6143528112       12.0004093179
  O        10.7512104502       18.7472030413        3.9099939835
  O        50.0800936145       16.4128239676       12.0865945746
  O         9.5245551376       16.4830535985        3.9962868328
 Zr         9.2960462138       16.0529726758       14.1771392873
 Zr        49.8355101152       16.0069066807        1.7517382431
 Zr        22.0732080273        0.0295938329       14.1839420598
 Zr        42.4608723378       35.1530957978        1.8058892299
 Zr        29.6158979378       19.0903063271       14.2814006762
 Zr        29.5801742821       19.1825738775        1.8792884388
 Zr        11.0373737430       19.0521492057        1.8327355250
 Zr        11.0430332865       19.1550259232       14.2462735613
 Zr        31.3304343487       16.1082861498        1.9064338540
 Zr        31.3860735234       16.0264009142       14.2790607832
 Zr        18.6010496270       -0.0016736522        1.7685672593
 Zr        18.5063165562       -0.0082796377       14.2085666809
 Zr        12.3010810157       16.3235155423       15.9853274212
 Zr        48.6148693553       18.8328384394        0.0154243790
 Zr        20.3147162112        2.4727814675       15.9852862469
 Zr        40.6431945156       32.6866156839       15.9730290990
 Zr        28.3468366899       16.3437873684        0.0922460138
 Zr        32.6268258382       18.8412277079        0.0657899106
  H        32.7102943162       18.3490769280        7.3013056670
  H        32.3588622519       18.2402627370        6.6583320587
  H        29.2401017693       17.3250622307        8.6543890909
  H        30.6347878042       14.9299247287        8.6475727133
