     572
 i =      272, E =     -4746.7791603397
  C        11.8585153292       14.0534836454       13.7366509851
  C        12.4560633440       12.8903925022       13.0184539349
  C        11.7045675396       12.1717360925       12.0764524224
  C        12.2810265601       11.1096124265       11.3840218492
  C        13.6214965779       10.7396279068       11.6120329257
  C        14.3544328332       11.4428767448       12.5859157752
  C        13.7814447254       12.5077539938       13.2774972596
  C        14.2610846189        9.6489754356       10.8386611685
  C        14.2565614516        9.6570018327        9.4169408943
  C        13.7433827799       10.7591032921        8.6629924379
  C        49.1264728950       21.2334048241       13.8746913359
  C        48.5496635446       22.4012423876       13.1476205197
  C        49.2996923399       23.0685744002       12.1666104554
  C        48.7326990239       24.1076594524       11.4334170094
  C        47.4021552492       24.5093238105       11.6620978952
  C        46.6712028135       23.8603876899       12.6755837443
  C        47.2336846522       22.8154811004       13.4049203970
  C        46.7720136823       25.5870279724       10.8647281246
  C        46.7613407547       25.5575318751        9.4429341983
  C        47.2614410311       24.4424730050        8.6994880404
  C        14.8604173774        8.5706425573        8.7036308261
  C        14.8917930684        8.5969524371       11.5152760549
  C        49.1131395931       21.2034934574        2.1504801618
  C        48.5278906076       22.3648522287        2.8776243444
  C        49.2674133949       23.0259266268        3.8701123828
  C        48.6910969387       24.0604332283        4.6016355645
  C        47.3605139025       24.4569054998        4.3638308548
  C        46.6397891860       23.8115389607        3.3408277369
  C        47.2132620163       22.7756467444        2.6089602738
  C        46.7221464343       25.5319687315        5.1548054193
  C        46.7339880526       25.5284022725        6.5764989216
  C        47.2493954761       24.4292234557        7.3329308986
  C        40.6188197593       17.0852181034        7.3159942619
  C        40.6280172889       17.0970929438        4.5062555768
  C        11.8828459386       14.0865732520        2.2905857834
  C        12.4719984035       12.9104340963        2.9946055786
  C        11.7146741276       12.1775598899        3.9211238044
  C        12.2812557708       11.0951242611        4.5896245056
  C        13.6199094760       10.7210348623        4.3574534415
  C        14.3576923235       11.4362758930        3.3962554901
  C        13.7922668202       12.5174399012        2.7235292737
  C        14.2536431789        9.6244297650        5.1279981184
  C        14.2525432532        9.6445530112        6.5498389993
  C        13.7428166992       10.7535493779        7.2969396674
  C        22.5104951978        3.2447387205       13.7469492213
  C        23.2221578007        4.3508578902       13.0445200711
  C        24.2197377695        4.0716217435       12.0988189961
  C        24.8449076036        5.1114642597       11.4153404753
  C        24.4879823258        6.4529678765       11.6571352506
  C        23.5180631774        6.7238629427       12.6395521151
  C        22.8885517808        5.6857528745       13.3215950854
  C        25.0940441251        7.5596711107       10.8815760516
  C        25.0728058227        7.5509023490        9.4597276486
  C        24.3753150587        6.5498367138        8.7115385744
  C        38.3018232620       31.9290590526       13.8443196674
  C        37.5709352469       30.8401277800       13.1358025473
  C        36.6080668579       31.1445898164       12.1613166658
  C        35.9888034603       30.1248518286       11.4440939744
  C        36.3178305762       28.7754566611       11.6791369160
  C        37.2510720615       28.4784578721       12.6902450637
  C        37.8741743332       29.4968454874       13.4067461723
  C        35.7153484444       27.6843300333       10.8810217963
  C        35.7457767128       27.7013939218        9.4595748205
  C        36.4480440933       28.7068613281        8.7230949798
  C        25.6981636185        8.6202506636        8.7408008540
  C        25.6874094003        8.6362650726       11.5532828990
  C        38.3281474360       31.9624333690        2.1608740073
  C        37.6050661780       30.8904961886        2.9018699673
  C        36.6775573695       31.2006544601        3.9082995487
  C        36.0665634855       30.1831401220        4.6382551398
  C        36.3690402701       28.8300670633        4.3855921166
  C        37.2734801770       28.5300699815        3.3484098092
  C        37.8864319844       29.5439470921        2.6194880007
  C        35.7616350534       27.7313199149        5.1701346800
  C        35.7695137194       27.7256529525        6.5922292948
  C        36.4591129516       28.7186704691        7.3565097956
  C        46.1359786489       26.6211011011        7.2865291947
  C        46.0880451473       26.5802009956        4.4787075224
  C        22.4633242025        3.2556969433        2.2616522931
  C        23.1632435750        4.3637321683        2.9815055761
  C        24.1674457751        4.0758209859        3.9195644117
  C        24.8001936526        5.1046753684        4.6134947496
  C        24.4490815195        6.4514410514        4.3920720831
  C        23.4685712568        6.7326130390        3.4218032029
  C        22.8313244275        5.7039954630        2.7283130280
  C        25.0806420166        7.5489579635        5.1673627086
  C        25.0669958134        7.5443596937        6.5902100999
  C        24.3706514639        6.5478977497        7.3448215484
  C        26.6151377034       17.8590407593       13.7783673035
  C        25.3079593654       17.9075761896       13.0562745494
  C        25.0443048031       18.9098667161       12.1089728941
  C        23.8319762098       18.9287635287       11.4220431852
  C        22.8460686169       17.9498507577       11.6612928348
  C        23.1049328991       16.9713439102       12.6398742011
  C        24.3194911524       16.9461675399       13.3236069945
  C        21.5737585091       17.9358613794       10.8956442531
  C        21.5755506232       17.9186743010        9.4731125614
  C        22.7821866601       17.7984869142        8.7139541816
  C        34.4377466212       17.1961987399       13.9124232129
  C        35.7300022874       17.1438990607       13.1693908224
  C        35.9336477755       16.1739435121       12.1753946653
  C        37.1139712528       16.1589966602       11.4379649682
  C        38.1234621587       17.1123909937       11.6744064750
  C        37.9227332319       18.0627365082       12.6937521000
  C        36.7393920384       18.0834670731       13.4284047515
  C        39.3763381259       17.1183433204       10.8851034917
  C        39.3678937190       17.1222521998        9.4629939715
  C        38.1588003499       17.2434276401        8.7083002593
  C        20.3296715825       17.9367336662        8.7631753767
  C        20.3485128191       17.9357323001       11.5768545847
  C        34.4377353509       17.2379342261        2.1969617155
  C        35.7365349423       17.1373190984        2.9214935103
  C        35.9362658722       16.1642114318        3.9121319410
  C        37.1274445548       16.1314097350        4.6330965865
  C        38.1476250758       17.0705142928        4.3839226023
  C        37.9530273131       18.0166790249        3.3600349761
  C        36.7615714364       18.0549223690        2.6423615665
  C        39.3981648151       17.0853085201        5.1750224876
  C        39.3789732932       17.1056380841        6.5965633130
  C        38.1641795464       17.2337753225        7.3416274222
  C        35.1421338099       26.6442512165        7.2955943103
  C        35.1751934933       26.6588565045        4.4865055934
  C        26.5726840127       17.8284745731        2.3296969542
  C        25.2583378205       17.8717551310        3.0381698582
  C        24.9939405951       18.8788208131        3.9787704560
  C        23.7765978560       18.9052362393        4.6535678274
  C        22.7938131890       17.9248001228        4.4107249924
  C        23.0527652678       16.9421579753        3.4381382304
  C        24.2710924208       16.9135432531        2.7619213774
  C        21.5296561196       17.9088160299        5.1829728332
  C        21.5526559287       17.9027558904        6.6045061793
  C        22.7706662282       17.7904603156        7.3476832754
  C        14.0467392415       17.8292198282        2.2937276941
  C        15.3518034559       17.8874097024        3.0187612701
  C        15.6080974025       18.8913077409        3.9657291728
  C        16.8172196996       18.9134513284        4.6584897840
  C        17.8044432821       17.9343186250        4.4267147967
  C        17.5530962848       16.9548903134        3.4472668166
  C        16.3434183275       16.9282583283        2.7560384722
  C        19.0732726547       17.9178371331        5.1964736828
  C        19.0711230939       17.9164694502        6.6190307034
  C        17.8635388516       17.8190921946        7.3795145640
  C        46.8015167334       17.2158363750        2.1621797206
  C        45.5078062852       17.1444284076        2.9021532280
  C        45.3036069097       16.1608333814        3.8826872348
  C        44.1195117911       16.1316734114        4.6149481322
  C        43.1077429085       17.0858068151        4.3900689347
  C        43.3085636999       18.0479263392        3.3814675911
  C        44.4935653141       18.0810710479        2.6498062624
  C        41.8546038499       17.0896751972        5.1808886296
  C        41.8637901089       17.0946717419        6.6033220611
  C        43.0744859377       17.1929361266        7.3588312914
  C        20.3174120300       17.9281327317        7.3283121051
  C        20.2981243705       17.8965030078        4.5154246682
  C        46.7850256085       17.2325288485       13.8811713617
  C        45.4839068963       17.1285932008       13.1612624980
  C        45.2657864412       16.1287562523       12.2010064224
  C        44.0784821728       16.1007309568       11.4734247942
  C        43.0790029080       17.0699054464       11.6877764196
  C        43.2885380752       18.0411550338       12.6848253839
  C        44.4766735440       18.0751470752       13.4080851752
  C        41.8310482053       17.0881056375       10.8927373390
  C        41.8518818986       17.0926542106        9.4713153579
  C        43.0689265068       17.1890565608        8.7257010677
  C        46.1534637339       26.6374207501        8.7210769153
  C        46.1618157004       26.6560569192       11.5308056084
  C        14.0444411248       17.8313193141       13.7036298860
  C        15.3650116882       17.9053211857       13.0123923038
  C        15.6390934752       18.9230024165       12.0866478401
  C        16.8679535907       18.9605560217       11.4316849069
  C        17.8495206818       17.9793402886       11.6768309531
  C        17.5819613668       16.9899721495       12.6403005020
  C        16.3552285934       16.9520645011       13.2988871177
  C        19.1169070361       17.9555826198       10.9085508193
  C        19.0940444220       17.9350422481        9.4870663836
  C        17.8746293031       17.8274134275        8.7455094080
  C        28.7956159815       14.1152789915        2.4008523019
  C        28.1943297016       12.9370018485        3.0903543132
  C        28.9221072985       12.1973256449        4.0341567686
  C        28.3299600021       11.1150332278        4.6813058954
  C        26.9958768395       10.7489386972        4.4098246419
  C        26.2902968998       11.4696222469        3.4295467509
  C        26.8801770309       12.5509515047        2.7802591913
  C        26.3304220400        9.6639429052        5.1680242744
  C        26.3116963359        9.6912046236        6.5889134895
  C        26.8100178585       10.8057475822        7.3354694225
  C        32.1808431268       21.2409381563        2.1504793821
  C        32.7770804703       22.4055134016        2.8686373743
  C        32.0294117598       23.0842731454        3.8431934822
  C        32.6007002047       24.1231817598        4.5712634007
  C        33.9352032967       24.5117300858        4.3451945233
  C        34.6655788752       23.8517883336        3.3390654326
  C        34.0967939965       22.8069291827        2.6131700904
  C        34.5631555652       25.5875183907        5.1455980034
  C        34.5550462781       25.5582525501        6.5672170535
  C        34.0527219525       24.4395609604        7.3039428918
  C        25.6999037564        8.6133827896        7.3061849578
  C        25.6983447357        8.6112230828        4.4930119101
  C        32.1199007639       21.1950215065       13.8420105509
  C        32.7044332644       22.3539192788       13.1074040458
  C        31.9736482989       23.0051050390       12.1018287418
  C        32.5484532713       24.0458487436       11.3769594451
  C        33.8692435452       24.4620242814       11.6359841567
  C        34.5817435764       23.8243284737       12.6696390035
  C        34.0104244918       22.7809195686       13.3930364395
  C        34.5072209890       25.5465895739       10.8552791914
  C        34.5261266775       25.5372454129        9.4331484632
  C        34.0387098616       24.4294192631        8.6705119482
  C        40.6125087733       17.0893378996        8.7508705978
  C        40.6018509277       17.1181920017       11.5611456221
  C        28.7196542637       14.0962208767       13.7803227846
  C        28.1140841402       12.9442224564       13.0498970533
  C        28.8553298212       12.2336230304       12.0930196382
  C        28.2764994333       11.1703804819       11.4039986101
  C        26.9408310439       10.7914637131       11.6464833673
  C        26.2177020004       11.4875503657       12.6331825597
  C        26.7948861084       12.5505633902       13.3247342651
  C        26.3013028023        9.6978795027       10.8763274661
  C        26.2978327360        9.7092129811        9.4546702161
  C        26.8014302052       10.8157372491        8.7010715653
  C        18.1354864842        3.1808639087        2.3223270545
  C        17.4060763694        4.2781179031        3.0209366230
  C        16.3908129374        3.9996467653        3.9489058313
  C        15.7429990845        5.0395481928        4.6124371319
  C        16.0944288560        6.3833252410        4.3724269207
  C        17.0833764942        6.6529437251        3.4082501341
  C        17.7325427602        5.6156819173        2.7431450468
  C        15.4701020781        7.4910595598        5.1354128368
  C        15.4855382758        7.4905191963        6.5571088216
  C        16.1872034324        6.4969894260        7.3102746358
  C        42.9458855448       31.8594199303        2.0780168105
  C        43.6462589064       30.7718588441        2.8219693044
  C        44.5919823052       31.0931973629        3.8078634728
  C        45.1977308097       30.0876657140        4.5554873986
  C        44.8712770416       28.7345950250        4.3406672566
  C        43.9452701142       28.4202266006        3.3276389174
  C        43.3364064247       29.4253637297        2.5796205771
  C        45.4889226250       27.6553943025        5.1439206632
  C        45.4930766025       27.6810902905        6.5655926583
  C        44.8060150742       28.6891657050        7.3121696224
  C        14.8566949490        8.5631274763        7.2694047439
  C        14.8746329020        8.5627116411        4.4568001031
  C        42.9463602849       31.9614755218       13.8038113930
  C        43.6914339606       30.8854492950       13.0902392679
  C        44.6562850328       31.1913650770       12.1181895008
  C        45.2776880651       30.1717744025       11.4004137220
  C        44.9536401732       28.8214715056       11.6378376156
  C        44.0196633869       28.5238131654       12.6481553270
  C        43.3915223050       29.5405793320       13.3604069212
  C        45.5627246406       27.7240936392       10.8526156174
  C        45.5334397167       27.7175634728        9.4313145664
  C        44.8270850408       28.7077552469        8.6783473302
  C        35.1286334865       26.6327584348        8.7303614099
  C        35.1135163095       26.6066176015       11.5402345010
  C        18.1486042284        3.2468425945       13.7015865094
  C        17.4301055616        4.3437722657       12.9922102994
  C        16.4149369393        4.0524971857       12.0686244134
  C        15.7665746127        5.0831141186       11.3932524952
  C        16.1211378271        6.4283485971       11.6160991899
  C        17.1124660641        6.7117473886       12.5734019225
  C        17.7601656715        5.6828293299       13.2531280337
  C        15.4906391220        7.5240422610       10.8436560431
  C        15.4966608887        7.5075597776        9.4225234133
  C        16.1933810835        6.5057912706        8.6758712781
  H        10.6725386531       12.4660598461       11.8991334848
  H        11.6948475407       10.5512745680       10.6572783194
  H        15.3913388009       11.1680311449       12.7679772868
  H        14.3506869858       13.0708085404       14.0132314536
  H        13.3763114139       11.6312152456        9.1962945665
  H        50.3223732574       22.7485181424       11.9817934940
  H        49.3191317505       24.6229433152       10.6758085694
  H        45.6416567010       24.1610392085       12.8587125983
  H        46.6625775330       22.2901984351       14.1669205535
  H        47.6296744312       23.5759554880        9.2411720289
  H        14.8719248920        8.5880929525       12.6035830736
  H        50.2875792015       22.7032978012        4.0647367348
  H        49.2696322759       24.5761342442        5.3648554235
  H        45.6101692649       24.1083287153        3.1522386209
  H        46.6520688307       22.2530665058        1.8379431942
  H        47.6081374288       23.5520817732        6.8020574894
  H        40.6307820315       17.0601250153        3.4185146688
  H        48.6869182845       14.0949798481       15.7948794052
  H        10.6812621324       12.4667838065        4.0986634506
  H        11.6894708738       10.5249429289        5.3024979036
  H        15.3929611648       11.1580416522        3.2099632257
  H        14.3644325125       13.0864725473        1.9946036806
  H        13.3758778302       11.6220960564        6.7582793046
  H        47.9299166773       14.2187584357        1.7156716311
  H        47.7798886245       14.3732941397       14.4899637109
  H        49.0820046591       18.5516967812        2.8720140080
  H        10.4155835366       14.1344054778        0.0038102253
  H        24.4831370249        3.0332883090       11.9099051665
  H        25.6190530935        4.8943142786       10.6825582901
  H        23.2345409832        7.7564173948       12.8326620080
  H        22.1178390228        5.8855295803       14.0620469494
  H        23.8124161017        5.7931441419        9.2502817216
  H        36.3700699754       32.1879037908       11.9680367735
  H        35.2419238439       30.3643710576       10.6903834132
  H        37.5126888507       27.4392488415       12.8785441512
  H        38.6203466715       29.2752518276       14.1660888611
  H        37.0104844373       29.4582661584        9.2696131273
  H        25.7179588074        8.6206465693       12.6412806584
  H        36.4564918994       32.2451973661        4.1158240028
  H        35.3416706001       30.4290647050        5.4110613320
  H        37.5183383497       27.4894458277        3.1463244084
  H        38.6072648258       29.3171398752        1.8377676306
  H        37.0311901248       29.4786955125        6.8322421605
  H        46.1092073719       26.5873377742        3.3906737529
  H        44.6680655696       35.1160241672       15.8088634396
  H        24.4424529172        3.0368893077        4.0869885484
  H        25.5818892318        4.8735962628        5.3340323272
  H        23.1857187084        7.7677201602        3.2414028715
  H        22.0583252761        5.9188186253        1.9940307624
  H        23.8036921544        5.7900993748        6.8118973894
  H        44.9529230586       34.3894892338        1.6996356712
  H        44.9011150851       34.2066214252       14.4853970087
  H        40.6653532873       33.2084554654        2.8578994743
  H        23.1507520355        1.9573669155        0.0098142114
  H        25.7995409467       19.6713778915       11.9278696820
  H        23.6325285148       19.7116495876       10.6933982182
  H        22.3551221375       16.2071453996       12.8343576088
  H        24.5300122360       16.1770933634       14.0631727818
  H        23.7230218452       17.6807882531        9.2438398740
  H        35.1489742179       15.4446681875       11.9890797412
  H        37.2697322504       15.4004038839       10.6740875596
  H        38.6933326109       18.8079213721       12.8801506157
  H        36.5680289617       18.8325873059       14.1979603872
  H        37.2206949542       17.3779087365        9.2394968635
  H        20.3538290492       17.9722117367       12.6648646105
  H        35.1411806013       15.4505696303        4.1155337262
  H        37.2797115946       15.3741534099        5.3989629018
  H        38.7330422129       18.7489098224        3.1621431785
  H        36.5918565066       18.8045106125        1.8733055471
  H        37.2297515440       17.3604859064        6.8023873622
  H        35.1482497144       26.6846854593        3.3988060849
  H        28.5079053713       21.0920090047       15.8877196488
  H        25.7549101658       19.6344952850        4.1605021836
  H        23.5708595453       19.6910724276        5.3771847107
  H        22.3022181786       16.1783627074        3.2450356081
  H        24.4867078087       16.1436482941        2.0248554830
  H        23.7026188813       17.6667348762        6.8043318998
  H        29.0055223723       21.7262054333        1.7474350387
  H        29.1610798941       21.7466514327       14.5484510521
  H        32.0627086964       18.5665371064        3.0027526051
  H        27.4061599787       19.0826488644        0.0875557827
  H        14.8491193508       19.6498662962        4.1437412219
  H        17.0117726768       19.6983566021        5.3862344620
  H        18.3046531800       16.1909059519        3.2589760474
  H        16.1379397700       16.1585980035        2.0158335023
  H        16.9213302103       17.7045613233        6.8515289996
  H        46.0904237196       15.4326314344        4.0650019302
  H        43.9641273230       15.3614927915        5.3672961101
  H        42.5362757762       18.7930472921        3.2019301306
  H        44.6630014354       18.8391417648        1.8886097684
  H        44.0150232458       17.3035900296        6.8268202080
  H        20.2929758291       17.9241940810        3.4272448363
  H        46.0420152626       15.3870408964       12.0270302110
  H        43.9122995900       15.3237005674       10.7304433639
  H        42.5226834410       18.7946238546       12.8567890246
  H        44.6582122273       18.8434879746       14.1556126789
  H        44.0053695109       17.2956467769        9.2656239644
  H        46.1982694297       26.6824541273       12.6182791403
  H        52.7409641693       21.0626091352        0.1997320226
  H        14.8794209099       19.6782551055       11.8975329599
  H        17.0802376662       19.7527641446       10.7169339735
  H        18.3314163144       16.2259646902       12.8365263287
  H        16.1328121869       16.1759385674       14.0271198148
  H        16.9407220150       17.7192693211        9.2888373778
  H        52.3217862757       21.6731049244       14.2894912765
  H        52.0129764075       21.7018508488        1.5007929495
  H        49.0668034913       18.6077699694       13.1992536465
  H        13.2471016127       19.0166695795       15.9721777967
  H        29.9502432638       12.4829157936        4.2454924382
  H        28.8963584993       10.5401547901        5.4108338710
  H        25.2594359974       11.1975975198        3.2122066806
  H        26.3328074380       13.1275920099        2.0386905634
  H        27.1738918317       11.6745419021        6.7954696468
  H        31.0044643323       22.7711634275        4.0260008585
  H        32.0166978134       24.6476766757        5.3243125218
  H        35.6987019621       24.1422106767        3.1595238721
  H        34.6665172916       22.2715359351        1.8571561265
  H        33.7040466978       23.5676899666        6.7577675786
  H        25.7314940262        8.5915379069        3.4050976177
  H        30.9585860197       22.6741718125       11.8951528167
  H        31.9752856306       24.5523261522       10.6035559834
  H        35.6042781534       24.1342384720       12.8750746374
  H        34.5659306767       22.2668802490       14.1739150374
  H        33.6804328861       23.5486447070        9.1959162070
  H        40.5978507705       17.0875380783       12.6490762706
  H        32.5091191997       14.1503030326        0.2635261162
  H        29.8886269096       12.5215155190       11.9122760249
  H        28.8584643678       10.6148451995       10.6717801249
  H        25.1846455991       11.2066817757       12.8277685732
  H        26.2339129224       13.1031378111       14.0747753241
  H        27.1575263300       11.6927634410        9.2338131278
  H        33.2913768177       14.1931451348       14.4306250564
  H        33.4035113745       14.4106428842        1.6096513454
  H        32.1329324648       18.5222689837       13.1657673146
  H        30.2121217001       14.1868546488        0.0849400547
  H        16.1190694284        2.9630987347        4.1355296625
  H        14.9538609382        4.8200277801        5.3283894073
  H        17.3654014351        7.6858670134        3.2148427086
  H        18.5141469385        5.8183460215        2.0148397869
  H        16.7536393571        5.7395683589        6.7767825064
  H        44.8283180334       32.1402755658        3.9819624634
  H        45.9376413259       30.3414138191        5.3113735778
  H        43.6823648307       27.3781917353        3.1576586452
  H        42.5996596195       29.1899299878        1.8151061425
  H        44.2304907565       29.4367452815        6.7738146317
  H        14.8505853914        8.5457342545        3.3685962154
  H        44.9000359987       32.2340273676       11.9269471173
  H        46.0248069457       30.4129026069       10.6473601178
  H        43.7622590493       27.4841225058       12.8393691680
  H        42.6446826791       29.3177744978       14.1185109964
  H        44.2683767301       29.4705483882        9.2128626056
  H        35.0703098801       26.6181898304       12.6277082950
  H        36.6049493857       35.1339997516        0.1858156757
  H        16.1439247903        3.0129015936       11.8988915449
  H        14.9742804703        4.8562047998       10.6831457196
  H        17.3957582103        7.7472613540       12.7503634343
  H        18.5429082571        5.8932498669       13.9780420341
  H        16.7647106180        5.7554836597        9.2143320763
  H        36.2786134141       34.4821501879       14.2683476254
  H        36.3806138925       34.2093050199        1.5049984690
  H        40.5794930328       33.2019204168       13.1486807799
  H        17.4707925388        1.9469275759       15.9689842806
  H        29.1595855093       19.4801935612        4.5134856128
  H        28.8133393026       18.5495532704       11.8812476151
  H        30.4538784262       15.6971418696       11.8971284358
  H        31.2069140756       15.6519142046        4.5743702123
  H        27.9648559592       17.9023714349        6.4316860410
  H        29.2480421633       15.5388975009        6.4534337557
  H        29.9726087863       19.7672005327       10.1058536881
  H        32.0456943522       16.0579695661       10.1027369796
  H        18.8538774935        0.8691549994        4.3405420118
  H        40.5277619535       35.2293536402       11.9471484661
  H        42.3232567168       34.4181879834       11.5862406774
  H        22.0882139663        0.6919305077        4.3567602448
  H        11.5972315392       18.7125083113        4.3872113602
  H        52.2646666984       18.4308513240       11.6724500965
  H        49.2546047985       16.4770679218       11.5797161393
  H        10.1499860367       15.7982450068        4.2978927960
  H        50.8496633232       17.6925129341       11.9491719748
  H        10.0457773028       17.3945180372        4.0570734728
  H        20.2150722375        0.0022853841        4.0471055250
  H        39.1832819693       36.1243024242       11.6813061603
 Ni        30.8184238095       17.7943706456       10.9078880340
 Ni        30.6914495071       16.4998618046        8.1551709813
 Ni        29.5983987775       18.5426523614        8.0780740382
 Ni        29.9693988716       17.4506434448        5.1657951155
  O        10.6498811687       14.3651155682       13.4807223380
  O        12.6131411568       14.6574906536       14.5788591493
  O        49.1477582890       16.8458786176       15.9847485004
  O        50.3500568019       20.9361405618       13.6432103462
  O        48.3484615243       20.5933128609       14.6609342998
  O        11.0513551374       17.0540739146       14.4956037761
  O        50.3210559014       20.8816817359        2.4118692558
  O        48.3468783666       20.5866410135        1.3322160414
  O        49.5433290691       18.2485900262        2.0733180775
  O        12.3588028406       18.6245956031        0.0049483062
  O        48.6931948190       14.1486065098       14.7461637474
  O         8.2098081799       14.2104705483        1.3276562570
  O        10.7352907629       14.5066220573        2.6693934477
  O        12.5718074631       14.5828269755        1.3335915226
  O        22.8449013796        2.0440915257       13.4818874704
  O        21.6053346359        3.5924460883       14.5847232627
  O        42.0580605799       34.1372016634       15.9737775880
  O        37.9816019341       33.1376590870       13.5675874293
  O        39.2181818380       31.5760904306       14.6614197458
  O        20.3083197405        1.0396294077       14.4969613269
  O        38.0250286415       33.1866023505        2.4199249379
  O        39.2191489675       31.5839734466        1.3315450524
  O        40.6522768633       33.7692759253        2.0653527144
  O        18.2555851336        1.3759047751        0.0019724975
  O        44.6222458099       35.1005628534       14.7536192845
  O        24.2053863975       -0.0000487567        1.3259100334
  O        22.7532779681        2.0575963681        2.5889955467
  O        21.6251156925        3.5966910486        1.3488173226
  O        27.4966060981       18.7483689411       13.4857089441
  O        26.7606140260       16.9361511118       14.6487982687
  O        30.6686958628       19.4100217669        0.0647620072
  O        33.5798417682       16.2800587740       13.6597492885
  O        34.2741499621       18.1661225514       14.7328058006
  O        29.5715437125       17.0650997483       14.5772669319
  O        33.5502948903       16.3396021732        2.4230837816
  O        34.3002521044       18.2371938147        1.4131068549
  O        31.6495662815       18.3168719076        2.1589134901
  O        30.3178116759       15.1524297923        0.0873432125
  O        28.5558580174       21.0371177477       14.8317111890
  O        28.5140438057       20.9586371078        1.4082426173
  O        27.4577330045       18.6801044630        2.6634745661
  O        26.6940786238       16.9298362478        1.4173880416
  O        13.1489024830       18.6930181655        2.5926342856
  O        13.9196269629       16.9163195037        1.4103548521
  O        50.5956595034       19.3501740098        0.0257664495
  O        47.6826726849       16.3270525401        2.4222995899
  O        46.9501402948       18.1754863749        1.3308477015
  O        11.0694951423       17.0157258350        1.4947647650
  O        47.6757182237       16.3358774389       13.6477961941
  O        46.9263149548       18.2358100409       14.6588054394
  O        49.5683557303       18.3178324045       13.9772733953
  O        10.3182600815       15.1002469600        0.0021383469
  O        52.6709181141       21.0280272107        1.2469569725
  O        12.1467522696       20.8911512381       14.6680947601
  O        13.1078737397       18.6138492414       13.3205587944
  O        13.9570484194       16.9869356759       14.6604236316
  O        29.9659457685       14.4993623791        2.7443119839
  O        28.0810583122       14.6568674028        1.4915322929
  O        32.0805595711       16.8688217725        0.0869946658
  O        30.9654245720       20.9540404941        2.4125347768
  O        32.9468764899       20.6008964813        1.3435670527
  O        29.5611859674       17.0815108366        1.5788011883
  O        30.9057178465       20.8759714480       13.5803468627
  O        32.8801235889       20.5846904634       14.6633834404
  O        31.6863927562       18.2516297828       13.9872836277
  O        28.2899244256       18.6804210318        0.0766381446
  O        32.4884749228       14.2151268579        1.3365909837
  O        32.4003788865       14.2146008790       14.8176134544
  O        29.8736966651       14.5055904909       13.4084232116
  O        28.0409136835       14.5868775977       14.7450482594
  O        17.8891723066        1.9666633319        2.6679244453
  O        18.9563007860        3.5270977101        1.4130772834
  O        39.1686798054       34.1388516475        0.0022620436
  O        43.2802207817       33.0589919006        2.3367700894
  O        42.0345642103       31.5065052626        1.2467234508
  O        20.3176759825        1.0366884362        1.4853725935
  O        43.2761292531       33.1825785617       13.5698464492
  O        42.0052507459       31.5841629407       14.5779159528
  O        40.5789416670       33.7748117421       13.9306735314
  O        22.3673396182        1.3845832508        0.0032115791
  O        36.6727728998       35.0997926665        1.2383888309
  O        16.4455420328        0.0641751222       14.6631639925
  O        17.9365363187        2.0433520630       13.3213122066
  O        18.9191042465        3.5931538396       14.6608604371
  O        29.7272386297       18.8277351705       12.0885628557
  O        29.8236717646       18.9695114794        4.0125020775
  O        31.1752014801       16.3309588802       12.0886129558
  O        31.1864454708       16.4864633146        4.0679216667
  O        31.7987621517       16.8586626460        9.5954985374
  O        30.1159479221       15.9809610429        6.4340324848
  O        30.4995678643       19.1261553080        9.5870875990
  O        28.8096886169       18.3867470437        6.4067560743
  O        39.4567355957       35.2437505822       11.9967853272
  O        19.1417818025        0.0047832348        3.9956575557
  O        41.9698584894       35.1730267267       12.0821645072
  O        21.6914985872       -0.0692377073        3.9010264916
  O        51.3648685258       18.6142853314       12.0003555167
  O        10.7512480561       18.7471734459        3.9100503815
  O        50.0792289344       16.4128816373       12.0866939514
  O         9.5242355856       16.4831114289        3.9962686352
 Zr         9.2960331296       16.0529899249       14.1771781072
 Zr        49.8356202983       16.0069821334        1.7517975091
 Zr        22.0729405651        0.0292992274       14.1841574829
 Zr        42.4606250072       35.1527226920        1.8059210392
 Zr        29.6216775791       19.0904322971       14.2787748000
 Zr        29.5792556755       19.1870231169        1.8625972412
 Zr        11.0372714743       19.0521905530        1.8328705168
 Zr        11.0429432059       19.1549761082       14.2462858811
 Zr        31.3304004615       16.1138682234        1.8957889038
 Zr        31.3967286594       16.0223903584       14.2832425963
 Zr        18.6008798172       -0.0020218944        1.7686640102
 Zr        18.5061566807       -0.0084121379       14.2085663098
 Zr        12.3010769620       16.3235671258       15.9852748883
 Zr        48.6150218717       18.8328017253        0.0155960105
 Zr        20.3148955884        2.4726953591       15.9858205861
 Zr        40.6428806492       32.6862423273       15.9731718681
 Zr        28.3465183643       16.3486104086        0.0882457087
 Zr        32.6329935298       18.8432295918        0.0609857670
  H        32.9414953501       17.2482471293        6.8193422458
  H        33.1529843462       17.1625978408        6.1167248327
  H        29.3086754336       15.0983317974        9.7727764025
  H        29.0463570645       14.5361978433       10.1857201985
