     572
 i =      275, E =     -4746.7534104462
  C        11.8585770785       14.0535303441       13.7365020782
  C        12.4560873714       12.8904355208       13.0182945917
  C        11.7046461580       12.1720353915       12.0760525225
  C        12.2809997749       11.1098324347       11.3836566397
  C        13.6213410672       10.7395321148       11.6119324631
  C        14.3541937425       11.4424704233       12.5861072070
  C        13.7813020959       12.5074267101       13.2776449705
  C        14.2610006897        9.6489851370       10.8384926354
  C        14.2565184307        9.6570065530        9.4167826274
  C        13.7434291906       10.7591614325        8.6628578974
  C        49.1263855978       21.2334818618       13.8746659559
  C        48.5495407920       22.4012265668       13.1475140478
  C        49.2997099831       23.0687704544       12.1667605217
  C        48.7327572849       24.1078419598       11.4335240591
  C        47.4020726472       24.5091744940       11.6618686424
  C        46.6708955854       23.8599638432       12.6749953809
  C        47.2333726759       22.8151045095       13.4043953313
  C        46.7719714517       25.5869285007       10.8645790657
  C        46.7612433628       25.5574330154        9.4428175248
  C        47.2610986519       24.4422844693        8.6993537823
  C        14.8605491596        8.5707171144        8.7035095258
  C        14.8916480486        8.5969321106       11.5151214792
  C        49.1130239219       21.2035047182        2.1505060209
  C        48.5276542333       22.3647417586        2.8777122461
  C        49.2670074385       23.0257379333        3.8703569440
  C        48.6906314295       24.0602790476        4.6017717761
  C        47.3600836372       24.4567496752        4.3637628346
  C        46.6395023709       23.8114851486        3.3405978276
  C        47.2130815453       22.7755723921        2.6088516959
  C        46.7217292010       25.5318016212        5.1547323425
  C        46.7335788023       25.5282569806        6.5764226243
  C        47.2489080391       24.4289961066        7.3328024680
  C        40.6351081334       17.1110271211        7.3278697292
  C        40.6546519840       17.1515688092        4.5191092712
  C        11.8827976359       14.0864959649        2.2905191972
  C        12.4720663081       12.9104771512        2.9946120581
  C        11.7147313537       12.1777609251        3.9212361111
  C        12.2812666785       11.0953040800        4.5897172955
  C        13.6198595358       10.7210770121        4.3574196244
  C        14.3575498580       11.4360206680        3.3959265690
  C        13.7921714587       12.5171868992        2.7231919219
  C        14.2535566731        9.6244389737        5.1278921890
  C        14.2526130192        9.6446108683        6.5497332374
  C        13.7428150093       10.7535946782        7.2968096237
  C        22.5097303868        3.2440764800       13.7468402291
  C        23.2196392462        4.3503836422       13.0438963978
  C        24.2138424651        4.0721827378       12.0944302709
  C        24.8365771846        5.1130683674       11.4104788367
  C        24.4804764389        6.4540235123       11.6561033112
  C        23.5138827502        6.7237473507       12.6419606146
  C        22.8865728848        5.6847176285       13.3241976423
  C        25.0843802397        7.5621326802       10.8816115367
  C        25.0593755351        7.5566990593        9.4600140377
  C        24.3594736566        6.5578142287        8.7111326091
  C        38.3020046600       31.9297101756       13.8445485363
  C        37.5710571780       30.8409040048       13.1363344194
  C        36.6099130188       31.1454637118       12.1602898762
  C        35.9914662253       30.1256474803       11.4426270531
  C        36.3197707302       28.7764129788       11.6792219121
  C        37.2508487535       28.4792918679       12.6922160384
  C        37.8732338731       29.4977851968       13.4089570715
  C        35.7180380154       27.6851762447       10.8812570234
  C        35.7487404392       27.7017046996        9.4599423498
  C        36.4519138956       28.7064039049        8.7232695533
  C        25.6839470847        8.6273141986        8.7425812196
  C        25.6797594583        8.6365036341       11.5549962239
  C        38.3287604383       31.9624757313        2.1613261977
  C        37.6068438179       30.8903340147        2.9032689702
  C        36.6773822155       31.2002815900        3.9078980588
  C        36.0666489740       30.1826267191        4.6378527783
  C        36.3713555310       28.8298142979        4.3867900240
  C        37.2784344205       28.5298828269        3.3519987230
  C        37.8912022670       29.5439614520        2.6231837671
  C        35.7632161164       27.7312632649        5.1710564854
  C        35.7716468679       27.7254992585        6.5930237185
  C        36.4624674855       28.7180818465        7.3567320851
  C        46.1357099756       26.6209863970        7.2865127687
  C        46.0877202945       26.5800882785        4.4786366088
  C        22.4617549864        3.2566999718        2.2623123899
  C        23.1572800204        4.3673099030        2.9828141512
  C        24.1626482336        4.0843158275        3.9210842768
  C        24.7908591596        5.1164649659        4.6144306238
  C        24.4341469770        6.4617923274        4.3925970413
  C        23.4522211834        6.7381454244        3.4223714545
  C        22.8195432840        5.7062433888        2.7294197290
  C        25.0626167888        7.5614418125        5.1680225203
  C        25.0488513506        7.5559151684        6.5908902056
  C        24.3526356361        6.5586188329        7.3444499739
  C        26.6013347732       17.8893336347       13.7805664954
  C        25.2966251044       17.9427314780       13.0527621242
  C        25.0341825352       18.9474988945       12.1083349491
  C        23.8226008500       18.9675371957       11.4194458207
  C        22.8378195848       17.9868734455       11.6556493125
  C        23.0955792483       17.0060608573       12.6316528578
  C        24.3088151520       16.9803806308       13.3169307111
  C        21.5666180244       17.9701093382       10.8897491779
  C        21.5696938443       17.9484235605        9.4678493159
  C        22.7775085738       17.8298289110        8.7102888488
  C        34.4462665327       17.1916951332       13.9195791645
  C        35.7407807200       17.1383767431       13.1801335921
  C        35.9409408724       16.1704616780       12.1836397373
  C        37.1187908481       16.1570997445       11.4426213517
  C        38.1286171678       17.1094073098       11.6801942123
  C        37.9321269565       18.0565442705       12.7031476195
  C        36.7506167956       18.0763691918       13.4405183908
  C        39.3810843729       17.1158603240       10.8917508376
  C        39.3766471899       17.1294571504        9.4700288794
  C        38.1700072006       17.2557001056        8.7122241022
  C        20.3244028598       17.9591222907        8.7574341743
  C        20.3415939563       17.9655630100       11.5708076587
  C        34.4808823683       17.2423447387        2.1828726796
  C        35.7826161294       17.1671676481        2.9058760149
  C        35.9905678898       16.1849636665        3.8855582116
  C        37.1749056096       16.1636636427        4.6159200690
  C        38.1784650758       17.1242228801        4.3856911819
  C        37.9766535439       18.0817076163        3.3743153472
  C        36.7900515814       18.1081553694        2.6467109570
  C        39.4235940364       17.1382484517        5.1830644468
  C        39.3985008318       17.1420499790        6.6041728184
  C        38.1804999951       17.2603795116        7.3454402883
  C        35.1433756670       26.6447876131        7.2965635640
  C        35.1753462646       26.6596548494        4.4875405969
  C        26.5734037277       17.8281185040        2.3302289954
  C        25.2585529179       17.8724880151        3.0388978902
  C        24.9896816214       18.8887845807        3.9682405798
  C        23.7714213849       18.9181141970        4.6414877406
  C        22.7929727989       17.9311660853        4.4082056399
  C        23.0567537486       16.9383606164        3.4474598517
  C        24.2757731745       16.9071210642        2.7725385778
  C        21.5278433328       17.9187116105        5.1787628103
  C        21.5495076908       17.9199211969        6.6000064757
  C        22.7674909150       17.8152141559        7.3442646838
  C        14.0461579890       17.8297875575        2.2923892357
  C        15.3515850984       17.8895542326        3.0156567139
  C        15.6097055898       18.8983548445        3.9566995882
  C        16.8191714618       18.9220117998        4.6484173323
  C        17.8038874207       17.9396166821        4.4206752944
  C        17.5508188997       16.9550465699        3.4471107488
  C        16.3407604547       16.9270085132        2.7569202943
  C        19.0721042897       17.9252856987        5.1904583834
  C        19.0682701100       17.9282269984        6.6127956157
  C        17.8600185355       17.8302217004        7.3723314127
  C        46.8060255943       17.2184717589        2.1641956542
  C        45.5182223142       17.1563868044        2.9111557944
  C        45.3140447308       16.1764203362        3.8948501626
  C        44.1341277182       16.1577331595        4.6332007616
  C        43.1295718743       17.1193749843        4.4098298932
  C        43.3312231555       18.0791951160        3.3996234027
  C        44.5115628488       18.1015773889        2.6618050812
  C        41.8776514976       17.1296069781        5.1988359564
  C        41.8825619587       17.1220009642        6.6204398030
  C        43.0913476619       17.2097983242        7.3799745360
  C        20.3137352804       17.9450940406        7.3228999516
  C        20.2971508374       17.9022903198        4.5101153762
  C        46.7856409239       17.2296563909       13.8857482016
  C        45.4825572149       17.1198981148       13.1733195480
  C        45.2661921047       16.1193481204       12.2137507766
  C        44.0785211775       16.0896696410       11.4876778690
  C        43.0786847790       17.0574071575       11.7047620311
  C        43.2847579307       18.0265475521       12.7042423143
  C        44.4735632889       18.0627739958       13.4253512578
  C        41.8342885847       17.0797853954       10.9065696864
  C        41.8605566075       17.0951096785        9.4859672157
  C        43.0809355035       17.1947292980        8.7463288632
  C        46.1533926419       26.6373845124        8.7210489702
  C        46.1619217709       26.6559874442       11.5306933680
  C        14.0434098623       17.8320931908       13.7036497786
  C        15.3627520209       17.9094662261       13.0107879998
  C        15.6312405626       18.9295232086       12.0859937492
  C        16.8582878869       18.9722949290       11.4282537365
  C        17.8434430296       17.9942889905       11.6706172346
  C        17.5815042505       17.0022239355       12.6328282964
  C        16.3562698525       16.9588862441       13.2939016904
  C        19.1104707912       17.9773733938       10.9019646289
  C        19.0883100324       17.9543304704        9.4806148478
  C        17.8697808332       17.8414902471        8.7383985817
  C        28.7944462658       14.1183374268        2.4015054942
  C        28.1880359047       12.9434391918        3.0938906056
  C        28.9095485133       12.2092195590        4.0465438535
  C        28.3140425729       11.1284351688        4.6930933934
  C        26.9823450073       10.7594233315        4.4134680918
  C        26.2828978284       11.4755742411        3.4254415951
  C        26.8766152207       12.5545663647        2.7757963697
  C        26.3137284363        9.6760096532        5.1708057666
  C        26.2950319021        9.7020196428        6.5918990247
  C        26.7960627276       10.8142643683        7.3404848732
  C        32.1810725658       21.2437024602        2.1488671079
  C        32.7764494390       22.4090401980        2.8675171279
  C        32.0286505582       23.0861543104        3.8430732591
  C        32.5998030698       24.1242983606        4.5724962678
  C        33.9340655127       24.5136133145        4.3462502841
  C        34.6643492985       23.8552983081        3.3390250707
  C        34.0958456624       22.8110192140        2.6121185006
  C        34.5622683860       25.5889435344        5.1468385529
  C        34.5546441389       25.5595822286        6.5684050903
  C        34.0505739389       24.4418172143        7.3055831251
  C        25.6829280429        8.6236132586        7.3079496984
  C        25.6808496081        8.6240834101        4.4947633394
  C        32.1200174884       21.1991748180       13.8472971205
  C        32.7057070314       22.3597945815       13.1141272884
  C        31.9719143189       23.0168267905       12.1146209860
  C        32.5473469359       24.0552707664       11.3868765536
  C        33.8716709443       24.4642942079       11.6384351333
  C        34.5873276541       23.8217560750       12.6667536102
  C        34.0154139754       22.7798001964       13.3921089082
  C        34.5094531057       25.5481002535       10.8565019626
  C        34.5270949994       25.5387792484        9.4345097866
  C        34.0371244383       24.4318817617        8.6721738041
  C        40.6235956389       17.1008463987        8.7620162296
  C        40.6039055260       17.1080751117       11.5714530669
  C        28.7345047595       14.0694645815       13.8127766015
  C        28.1209351172       12.9242399279       13.0751350525
  C        28.8604596455       12.2116891856       12.1185682810
  C        28.2756264724       11.1586402696       11.4189217126
  C        26.9360674643       10.7887920941       11.6536706508
  C        26.2137693103       11.4867649330       12.6395886411
  C        26.7961932626       12.5422600843       13.3388850038
  C        26.2930268901        9.6993785900       10.8798014622
  C        26.2867467331        9.7134740017        9.4582229192
  C        26.7912533702       10.8205039332        8.7062536197
  C        18.1353602681        3.1808655438        2.3222609915
  C        17.4059496322        4.2781500879        3.0208349832
  C        16.3904518282        3.9997236480        3.9485573658
  C        15.7426772558        5.0396768476        4.6120664768
  C        16.0943390867        6.3834152430        4.3721853330
  C        17.0834313004        6.6529858600        3.4081422207
  C        17.7325783437        5.6156806479        2.7430890361
  C        15.4700583577        7.4911302705        5.1352237728
  C        15.4856407611        7.4906235733        6.5569291998
  C        16.1872738528        6.4970604349        7.3100952380
  C        42.9459346322       31.8594890879        2.0779905333
  C        43.6463128291       30.7718889316        2.8218932539
  C        44.5921257188       31.0931959748        3.8077094143
  C        45.1978172663       30.0876297150        4.5553348855
  C        44.8710993028       28.7345974201        4.3406900764
  C        43.9449494915       28.4202684767        3.3277799160
  C        43.3361494194       29.4254260781        2.5797565359
  C        45.4887030360       27.6553264098        5.1438829348
  C        45.4930401889       27.6811047722        6.5655636603
  C        44.8060286378       28.6892177262        7.3121601478
  C        14.8566978968        8.5631389024        7.2692816827
  C        14.8746073326        8.5627914920        4.4566298171
  C        42.9464192331       31.9614704863       13.8038271301
  C        43.6915279649       30.8854296616       13.0902729190
  C        44.6564174031       31.1913402209       12.1182523439
  C        45.2778823496       30.1717599604       11.4004985381
  C        44.9537882998       28.8214617549       11.6378610689
  C        44.0199682189       28.5237698257       12.6483175458
  C        43.3917705109       29.5405387086       13.3605311451
  C        45.5628879126       27.7241118061       10.8526155928
  C        45.5334378779       27.7175558386        9.4313183748
  C        44.8272495861       28.7078612939        8.6783423403
  C        35.1306290747       26.6333629140        8.7312341386
  C        35.1162857219       26.6078360303       11.5410004721
  C        18.1485792326        3.2468800632       13.7015662358
  C        17.4299725972        4.3437941249       12.9922469394
  C        16.4149043985        4.0525240053       12.0685402125
  C        15.7666036684        5.0831481855       11.3931075015
  C        16.1211193299        6.4283885180       11.6159828340
  C        17.1123028433        6.7117761210       12.5734411134
  C        17.7599577268        5.6828619720       13.2532263293
  C        15.4906911054        7.5241221208       10.8435350849
  C        15.4967437151        7.5075962195        9.4223996058
  C        16.1935531596        6.5059248420        8.6756997523
  H        10.6726909138       12.4665615394       11.8986382839
  H        11.6948329906       10.5517326765       10.6567199437
  H        15.3909811423       11.1673136320       12.7683949488
  H        14.3504465552       13.0701566940       14.0137035824
  H        13.3762994689       11.6312422281        9.1961620940
  H        50.3225170851       22.7489338506       11.9822579847
  H        49.3192542879       24.6232968070       10.6760871526
  H        45.6412064681       24.1603115417       12.8577691472
  H        46.6621311127       22.2895471579       14.1661010262
  H        47.6293236752       23.5757799206        9.2410522636
  H        14.8717034399        8.5879904732       12.6034244830
  H        50.2871468294       22.7030935272        4.0650871749
  H        49.2690244707       24.5759465367        5.3651256873
  H        45.6099250330       24.1083256969        3.1518541175
  H        46.6520568864       22.2531041759        1.8376426797
  H        47.6074050244       23.5517520075        6.8019212863
  H        40.6609570601       17.1240193139        3.4311929224
  H        48.6870230034       14.0947312644       15.7949246772
  H        10.6814172447       12.4672017670        4.0989862173
  H        11.6895556669       10.5252655979        5.3027692789
  H        15.3927417358       11.1575939570        3.2094706413
  H        14.3642284195       13.0860789672        1.9940674907
  H        13.3758686211       11.6221479524        6.7581565518
  H        47.9300335660       14.2181357017        1.7156029190
  H        47.7800253612       14.3733354456       14.4900386713
  H        49.0831389692       18.5522244262        2.8724166855
  H        10.4156740432       14.1342899406        0.0037206749
  H        24.4764454731        3.0340839431       11.9031399569
  H        25.6082751925        4.8973672726       10.6746985603
  H        23.2315134294        7.7561104614       12.8376516968
  H        22.1181937903        5.8830867559       14.0674039468
  H        23.7969372169        5.8005096806        9.2493791797
  H        36.3726996351       32.1888044929       11.9662438353
  H        35.2458915278       30.3648226855       10.6875315876
  H        37.5114348337       27.4400430166       12.8816658135
  H        38.6178899584       29.2765710581       14.1698779552
  H        37.0151185407       29.4573372921        9.2696188845
  H        25.7126243895        8.6179789230       12.6428584571
  H        36.4545445344       32.2447312699        4.1139275286
  H        35.3402835080       30.4281436948        5.4094149689
  H        37.5252888814       27.4893747044        3.1516907093
  H        38.6139935979       29.3174945863        1.8431801108
  H        37.0349270757       29.4774971957        6.8319732106
  H        46.1088452836       26.5872790412        3.3905973908
  H        44.6681685191       35.1160976979       15.8087682283
  H        24.4423942590        3.0467371750        4.0892145514
  H        25.5733687507        4.8891669773        5.3352972784
  H        23.1646646364        7.7718641564        3.2413542728
  H        22.0456109032        5.9174476180        1.9950814757
  H        23.7844562696        5.8023236306        6.8106607232
  H        44.9534107338       34.3901509242        1.7001685907
  H        44.9012608290       34.2066209429       14.4854664108
  H        40.6655758780       33.2086597094        2.8580384556
  H        23.1504943762        1.9576545279        0.0100498525
  H        25.7880068884       19.7121461636       11.9338674910
  H        23.6220549140       19.7528491565       10.6936520670
  H        22.3456627517       16.2410842184       12.8226079214
  H        24.5200924553       16.2104303274       14.0553550953
  H        23.7175014306       17.7183737336        9.2428270255
  H        35.1542190188       15.4427898254       11.9993003423
  H        37.2732682347       15.4006355591       10.6763467858
  H        38.7047185065       18.7995200927       12.8900372341
  H        36.5808264260       18.8229567750       14.2129333685
  H        37.2303528091       17.3823542965        9.2424873196
  H        20.3465290694       18.0041277884       12.6587068640
  H        35.2035729063       15.4578775974        4.0712360768
  H        37.3362358459       15.3998509892        5.3734037031
  H        38.7461103828       18.8293915821        3.1934595481
  H        36.6111510913       18.8648791205        1.8865099263
  H        37.2487528697       17.3895432869        6.8021486827
  H        35.1481309855       26.6855054286        3.3998408270
  H        28.5071456990       21.0978440356       15.8891561477
  H        25.7470988257       19.6504183352        4.1404359352
  H        23.5611407456       19.7114584238        5.3556198378
  H        22.3092666326       16.1695692344        3.2623934337
  H        24.4954155491       16.1304833371        2.0437196828
  H        23.6997882739       17.6924714806        6.8012778607
  H        28.9956837798       21.7279778930        1.7560844556
  H        29.1685811433       21.7414451014       14.5481247433
  H        32.1169445663       18.5689704587        2.9738501041
  H        27.4024084549       19.0780400886        0.0910889442
  H        14.8518291528       19.6588973938        4.1308451203
  H        17.0161163999       19.7101155462        5.3720491164
  H        18.3010488648       16.1887732010        3.2629051398
  H        16.1328345950       16.1538700365        2.0210516554
  H        16.9185826664       17.7125078682        6.8436153410
  H        46.0969349375       15.4431677309        4.0734961344
  H        43.9751541158       15.3900517391        5.3872667287
  H        42.5630370098       18.8293346794        3.2236873343
  H        44.6841674448       18.8564762102        1.8983216575
  H        44.0337245585       17.3224300341        6.8516224329
  H        20.2927072188       17.9252629197        3.4218152818
  H        46.0447067117       15.3805169998       12.0380639687
  H        43.9126161462       15.3142057003       10.7430505436
  H        42.5166080974       18.7772271185       12.8778633610
  H        44.6551573758       18.8301835551       14.1737563683
  H        44.0153848859       17.2947102527        9.2907997257
  H        46.1984308395       26.6823407204       12.6181549299
  H        52.7408645866       21.0625195367        0.1997161731
  H        14.8683875080       19.6822781069       11.8999035150
  H        17.0665357009       19.7661751569       10.7141769670
  H        18.3342728985       16.2407919106       12.8263312399
  H        16.1377226769       16.1808212995       14.0212942304
  H        16.9357458300       17.7322621974        9.2813368079
  H        52.3215021369       21.6731528626       14.2897380105
  H        52.0126525001       21.7016452721        1.5007166814
  H        49.0664447547       18.6076289999       13.1994433312
  H        13.2469339175       19.0169805344       15.9720006551
  H        29.9350486555       12.4985763943        4.2653675398
  H        28.8763474359       10.5566807570        5.4282058778
  H        25.2540181681       11.2013151931        3.2015082739
  H        26.3346528586       13.1269106298        2.0269402723
  H        27.1611056906       11.6832724805        6.8016529193
  H        31.0034640189       22.7726666526        4.0244688499
  H        32.0156458299       24.6480738503        5.3259514789
  H        35.6972490252       24.1465860345        3.1595412133
  H        34.6653497013       22.2762643567        1.8554392276
  H        33.7000019283       23.5708105545        6.7592086145
  H        25.7152376149        8.6048686475        3.4068558593
  H        30.9533249679       22.6920762842       11.9155387278
  H        31.9721448243       24.5661213990       10.6178262203
  H        35.6125108723       24.1267167871       12.8663563715
  H        34.5732461093       22.2611196332       14.1683086801
  H        33.6767196799       23.5526437973        9.1986515567
  H        40.5964040188       17.0704322225       12.6590910428
  H        32.5404883321       14.1092557109        0.2707777172
  H        29.8970207609       12.4919535276       11.9449337646
  H        28.8562254186       10.6027577711       10.6858085028
  H        25.1777598017       11.2128317838       12.8283776315
  H        26.2355253471       13.0967845593       14.0877689805
  H        27.1516521814       11.6940184299        9.2416967893
  H        33.2937944746       14.1779919762       14.4202515833
  H        33.4355951578       14.3657130609        1.6141983505
  H        32.2068380812       18.5545875377       13.2304034629
  H        30.2270381479       14.1834208557        0.0820186255
  H        16.1185944010        2.9631863350        4.1350940557
  H        14.9533639911        4.8202301195        5.3278569611
  H        17.3655473461        7.6858987753        3.2147882840
  H        18.5143568688        5.8183006035        2.0149528705
  H        16.7537369496        5.7396621044        6.7765818859
  H        44.8285994211       32.1402546779        3.9817461191
  H        45.9378596509       30.3413069889        5.3111261886
  H        43.6818954205       27.3782459931        3.1579387980
  H        42.5992526477       29.1900582092        1.8153740989
  H        44.2306378523       29.4369409020        6.7738391404
  H        14.8504951822        8.5458007232        3.3684218793
  H        44.9001730449       32.2340059451       11.9270167659
  H        46.0249712118       30.4129335663       10.6474291908
  H        43.7626480889       27.4840681229       12.8395611433
  H        42.6450005613       29.3176811986       14.1186891581
  H        44.2686522984       29.4707054680        9.2128932981
  H        35.0734929438       26.6195467395       12.6284668067
  H        36.6050239596       35.1340285968        0.1857461214
  H        16.1439309845        3.0129287227       11.8987274368
  H        14.9743669058        4.8562781155       10.6829274516
  H        17.3955869476        7.7472724928       12.7505212123
  H        18.5426436901        5.8932505057       13.9782154366
  H        16.7649245294        5.7556460285        9.2141545553
  H        36.2786177990       34.4822715011       14.2682974613
  H        36.3807350441       34.2092305838        1.5048795734
  H        40.5798249547       33.2019985081       13.1487667301
  H        17.4707008476        1.9470620989       15.9690512180
  H        29.1369446640       19.4222956858        4.5316083781
  H        28.8147159156       18.7321375453       11.8542768989
  H        30.6355109326       15.5883359486       11.9053853027
  H        31.2562891508       15.4937569950        4.4480360547
  H        27.9251607872       17.9806022577        6.2507682278
  H        29.1296355719       15.4915799294        6.3740776993
  H        30.0643625848       19.8690600545       10.0204660640
  H        32.0027491167       15.9153204769        9.8564860508
  H        18.8537227111        0.8691531283        4.3403949236
  H        40.5278701412       35.2291438222       11.9470544243
  H        42.3234963320       34.4183454580       11.5858830641
  H        22.0880984770        0.6920438041        4.3566571865
  H        11.5969395221       18.7131324450        4.3875742353
  H        52.2644833496       18.4307683274       11.6722726202
  H        49.2550095892       16.4773557343       11.5796547139
  H        10.1501058316       15.7981156832        4.2980611995
  H        50.8494479003       17.6923288688       11.9492419300
  H        10.0459383874       17.3943376261        4.0571996625
  H        20.2148750033        0.0023195334        4.0471256296
  H        39.1835181822       36.1243523376       11.6812730964
 Ni        30.9383154097       17.8151367557       10.9893557865
 Ni        30.7763335528       16.4052760188        7.8294610198
 Ni        29.5084481311       18.4537882753        8.0790730802
 Ni        30.0995817232       17.4198663031        5.0025300104
  O        10.6499370049       14.3650711826       13.4806645705
  O        12.6131653997       14.6575237403       14.5787893785
  O        49.1481331062       16.8460305488       15.9846636834
  O        50.3500205579       20.9363455299       13.6432042773
  O        48.3484429187       20.5933544100       14.6608800485
  O        11.0513544146       17.0540687749       14.4955214528
  O        50.3209813695       20.8817172431        2.4119170579
  O        48.3467513198       20.5867935765        1.3322445578
  O        49.5436469288       18.2484952121        2.0734718101
  O        12.3588185598       18.6245440260        0.0048201148
  O        48.6932770169       14.1484687926       14.7462150879
  O         8.2098925741       14.2102319288        1.3275847674
  O        10.7353519690       14.5066654875        2.6694689648
  O        12.5717995050       14.5828249481        1.3335932971
  O        22.8445229175        2.0434454675       13.4819222533
  O        21.6050193579        3.5920605801       14.5850360803
  O        42.0581288147       34.1372855596       15.9739515883
  O        37.9816675431       33.1382152411       13.5676925123
  O        39.2181556398       31.5763075647       14.6615890222
  O        20.3083755821        1.0395318103       14.4969246275
  O        38.0250299553       33.1865307749        2.4199815511
  O        39.2192089114       31.5839584035        1.3315170688
  O        40.6523041814       33.7693225150        2.0653899781
  O        18.2554784494        1.3760263544        0.0019339675
  O        44.6222149978       35.1005394904       14.7535984613
  O        24.2054075522        0.0001178358        1.3259610304
  O        22.7532226887        2.0587687127        2.5893863231
  O        21.6246020668        3.5964491318        1.3479969725
  O        27.4960474364       18.7592902494       13.4820442779
  O        26.7306826991       16.9814222710       14.6638144074
  O        30.6751465699       19.4103316092        0.0694231944
  O        33.5913514863       16.2777320266       13.6643376264
  O        34.2772284689       18.1702353639       14.7301858850
  O        29.5745800502       17.0594331177       14.5805016973
  O        33.6235025305       16.3257178506        2.4100645249
  O        34.3071604841       18.2476397928        1.4116891765
  O        31.6570749237       18.3109622853        2.1580170749
  O        30.3249635833       15.1495602543        0.0931595937
  O        28.5557060743       21.0389614911       14.8328007961
  O        28.5128025236       20.9600167639        1.4061331540
  O        27.4583811243       18.6794391719        2.6650059277
  O        26.6939469327       16.9299344207        1.4185073497
  O        13.1484410239       18.6931977210        2.5922826425
  O        13.9193321384       16.9161317785        1.4099765568
  O        50.5958837305       19.3503068441        0.0257470026
  O        47.6845657415       16.3265458833        2.4219387002
  O        46.9520765563       18.1756588947        1.3298142808
  O        11.0695667667       17.0156207946        1.4948640810
  O        47.6772990492       16.3352517501       13.6486003188
  O        46.9277122550       18.2355251510       14.6596246043
  O        49.5685251504       18.3177902792       13.9771492594
  O        10.3185722757       15.1001617859        0.0021549767
  O        52.6707154640       21.0279164218        1.2469421136
  O        12.1467813183       20.8912552161       14.6680964769
  O        13.1066070580       18.6141596339       13.3207010471
  O        13.9567726108       16.9871302916       14.6598599724
  O        29.9643918881       14.5002819109        2.7452412952
  O        28.0804994145       14.6577474557        1.4902006348
  O        32.1462798430       16.8581686404        0.0880680361
  O        30.9667975015       20.9558873914        2.4118528558
  O        32.9482427963       20.6027166164        1.3447891797
  O        29.5710213882       17.0767018156        1.5806680273
  O        30.9077812845       20.8804689398       13.5833098281
  O        32.8826313295       20.5842415245       14.6634906113
  O        31.6881567731       18.2511467221       13.9930854847
  O        28.2882668132       18.6809895671        0.0786673762
  O        32.5234023675       14.1562779276        1.3405778263
  O        32.4087603144       14.2072022574       14.8200287247
  O        29.9112796814       14.4373898494       13.4801885738
  O        28.0352408209       14.5934485916       14.7467775116
  O        17.8891891712        1.9666374060        2.6679414486
  O        18.9562291828        3.5271543236        1.4131261152
  O        39.1687312363       34.1388613423        0.0022980154
  O        43.2802506126       33.0590288585        2.3367632620
  O        42.0345762750       31.5064885488        1.2467271978
  O        20.3177079246        1.0366600015        1.4854751729
  O        43.2760805594       33.1825762764       13.5698303031
  O        42.0052879796       31.5841233707       14.5778995733
  O        40.5790422550       33.7749245290       13.9307159590
  O        22.3672821517        1.3845846359        0.0031312519
  O        36.6727143075       35.0998030667        1.2383823359
  O        16.4454903999        0.0642859292       14.6631939827
  O        17.9364616240        2.0433887715       13.3212555588
  O        18.9190248944        3.5931280459       14.6608737487
  O        29.7346296813       18.8314863257       12.1600235016
  O        29.8218345780       18.9962528830        3.9789855128
  O        31.3032206724       16.2519295876       12.1641152004
  O        31.4289911214       16.3428438006        3.9975170731
  O        31.5554332349       16.6981950628        9.4857021765
  O        30.0363279563       15.8160130640        6.2427679903
  O        30.5019558201       19.1309146871        9.5617103441
  O        28.8010222087       18.3939186070        6.3233155350
  O        39.4567670623       35.2437896391       11.9968659339
  O        19.1416439077        0.0047135211        3.9956581274
  O        41.9696811934       35.1727534447       12.0821307688
  O        21.6914642150       -0.0692342712        3.9009921321
  O        51.3647673899       18.6142659860       12.0002992977
  O        10.7511618292       18.7472638055        3.9100463432
  O        50.0796798177       16.4128778275       12.0865516356
  O         9.5244087633       16.4830086732        3.9963639047
 Zr         9.2960080152       16.0527622795       14.1772619878
 Zr        49.8355677329       16.0066643453        1.7515905590
 Zr        22.0730102778        0.0292567905       14.1841413285
 Zr        42.4608191718       35.1530698653        1.8060074246
 Zr        29.6154852700       19.0854439923       14.2925604247
 Zr        29.5860574052       19.1909453177        1.8469248670
 Zr        11.0370633770       19.0521225073        1.8327029445
 Zr        11.0426886761       19.1550809899       14.2461875406
 Zr        31.3691742974       16.0943686521        1.8713024823
 Zr        31.4132082078       16.0058562615       14.2989646614
 Zr        18.6009004543       -0.0018883429        1.7685187468
 Zr        18.5062754520       -0.0081664655       14.2086080691
 Zr        12.3006172167       16.3235545796       15.9851801728
 Zr        48.6154026229       18.8330437569        0.0154194692
 Zr        20.3148633126        2.4727048715       15.9857638792
 Zr        40.6431313565       32.6864425126       15.9731598255
 Zr        28.3507529628       16.3513247359        0.0899377521
 Zr        32.6451466170       18.8394943473        0.0660765402
  H        31.3781572475       19.8839765508        7.1704804128
  H        31.1977675997       19.8603940541        6.4473656560
  H        28.0572976454       17.9025397417        8.9525121318
  H        28.4979436608       17.2383040951        8.8487053737
