     570
 i =      110, E =     -4745.6103596291
  C        11.8585741998       14.0535997987       13.7364907807
  C        12.4560861069       12.8905375616       13.0182424323
  C        11.7045433330       12.1719119119       12.0762475308
  C        12.2809197399       11.1097105827       11.3838686565
  C        13.6213546783       10.7396154170       11.6119215922
  C        14.3543261439       11.4428331035       12.5857967262
  C        13.7814370888       12.5077994200       13.2773235582
  C        14.2609684595        9.6490085872       10.8385113974
  C        14.2564672698        9.6570155625        9.4168046223
  C        13.7433550640       10.7591583567        8.6628813683
  C        49.1264956773       21.2333320473       13.8746624878
  C        48.5497049528       22.4011304204       13.1475498840
  C        49.2998606050       23.0686286468       12.1667495104
  C        48.7329421242       24.1077320170       11.4335233240
  C        47.4022887676       24.5091745574       11.6618971841
  C        46.6711579332       23.8600604660       12.6751309227
  C        47.2336032574       22.8151800532       13.4045290954
  C        46.7721711875       25.5869201133       10.8645890657
  C        46.7614612303       25.5574347860        9.4428229559
  C        47.2614509449       24.4423646603        8.6993371049
  C        14.8604559197        8.5706958354        8.7035442424
  C        14.8916148693        8.5969674540       11.5151527158
  C        49.1130723196       21.2034479939        2.1504653602
  C        48.5277467366       22.3647648434        2.8775594195
  C        49.2671080462       23.0257301943        3.8702254705
  C        48.6907738658       24.0602746043        4.6016678999
  C        47.3602363747       24.4568088162        4.3636730734
  C        46.6396524061       23.8116074064        3.3404566745
  C        47.2132054621       22.7756935556        2.6086838742
  C        46.7218553873       25.5318129659        5.1546996085
  C        46.7337953084       25.5282837021        6.5763981098
  C        47.2492382725       24.4290821236        7.3327860283
  C        40.6190716729       17.0845355581        7.3157685401
  C        40.6295562568       17.1001952359        4.5059955465
  C        11.8828230534       14.0865669641        2.2905521545
  C        12.4721328330       12.9106374557        2.9947311033
  C        11.7147233161       12.1776853929        3.9211135598
  C        12.2812778957       11.0952161725        4.5895599801
  C        13.6199775967       10.7212223638        4.3574829263
  C        14.3577961477       11.4364693897        3.3963174015
  C        13.7923972333       12.5176525199        2.7236199113
  C        14.2536417574        9.6245219200        5.1279218333
  C        14.2525930649        9.6446269885        6.5497640166
  C        13.7427898368       10.7536116082        7.2968336744
  C        22.5107159909        3.2444403630       13.7467284238
  C        23.2230426941        4.3497141037       13.0436801067
  C        24.2206274010        4.0689014090       12.0983991581
  C        24.8467519125        5.1076218029       11.4141086162
  C        24.4907983354        6.4495508741       11.6547308912
  C        23.5204559871        6.7219869333       12.6363097554
  C        22.8899997953        5.6850281080       13.3192148796
  C        25.0980932752        7.5555373725       10.8791608577
  C        25.0774583062        7.5469752585        9.4573132448
  C        24.3799428648        6.5462773815        8.7086851227
  C        38.3016181329       31.9288278327       13.8442926207
  C        37.5703392732       30.8397211737       13.1362961062
  C        36.6084007957       31.1438229218       12.1607464880
  C        35.9896005261       30.1238870700       11.4433234876
  C        36.3180567164       28.7744481953       11.6791160293
  C        37.2498065345       28.4778288621       12.6917725765
  C        37.8724950969       29.4964028668       13.4084084209
  C        35.7167819858       27.6828827733       10.8805203451
  C        35.7481034640       27.6996868687        9.4590534302
  C        36.4495960660       28.7057563311        8.7226653318
  C        25.7028493123        8.6167643322        8.7390547672
  C        25.6911711112        8.6319156979       11.5513506184
  C        38.3285417037       31.9623745156        2.1611930890
  C        37.6062781503       30.8902840013        2.9025918939
  C        36.6766217924       31.2000973061        3.9071161544
  C        36.0657380697       30.1823571446        4.6368120081
  C        36.3705075391       28.8295553481        4.3856841798
  C        37.2776273152       28.5298143793        3.3508288466
  C        37.8904601075       29.5439278559        2.6221766146
  C        35.7629537332       27.7305956042        5.1698023175
  C        35.7715564034       27.7243497683        6.5918221603
  C        36.4604566832       28.7178453048        7.3560792456
  C        46.1358037094       26.6209319200        7.2865195123
  C        46.0877197751       26.5800482141        4.4786283697
  C        22.4630626134        3.2557001170        2.2614582911
  C        23.1628911458        4.3640034013        2.9809019129
  C        24.1705073142        4.0765039342        3.9153983874
  C        24.8037807006        5.1055893878        4.6084385778
  C        24.4495079502        6.4519575845        4.3899365307
  C        23.4652300283        6.7328622950        3.4234625707
  C        22.8276264688        5.7039911719        2.7306339886
  C        25.0820415834        7.5489997458        5.1651223502
  C        25.0701200592        7.5428599936        6.5879405753
  C        24.3744791499        6.5455256064        7.3419837641
  C        26.6157645263       17.8597561432       13.7785680743
  C        25.3087314629       17.9084443038       13.0558333075
  C        25.0459189866       18.9100286037       12.1075361439
  C        23.8337726140       18.9289570157       11.4201484300
  C        22.8470820530       17.9509974975       11.6601634222
  C        23.1052657525       16.9731930327       12.6396403873
  C        24.3196209623       16.9478564757       13.3237578391
  C        21.5746870134       17.9364565744       10.8945745673
  C        21.5762358677       17.9173295647        9.4720806862
  C        22.7826381793       17.7966669379        8.7125731586
  C        34.4352834969       17.1970653901       13.9113789575
  C        35.7278459141       17.1429198602       13.1682797291
  C        35.9331704124       16.1697391453       12.1778295047
  C        37.1135639203       16.1537343247       11.4404233807
  C        38.1218130495       17.1092593321       11.6734570371
  C        37.9196851157       18.0626806730       12.6895785589
  C        36.7362215310       18.0844101927       13.4241092457
  C        39.3750554718       17.1143052415       10.8843989968
  C        39.3671710874       17.1184628508        9.4622738981
  C        38.1582735453       17.2389284255        8.7069987548
  C        20.3301844199       17.9341914164        8.7624632503
  C        20.3495325201       17.9368039369       11.5760590083
  C        34.4385771516       17.2377662898        2.1953245042
  C        35.7390769736       17.1361544006        2.9174869051
  C        35.9421813455       16.1587490146        3.9031173212
  C        37.1328452261       16.1270373467        4.6249717637
  C        38.1494758133       17.0714754465        4.3814815220
  C        37.9523716733       18.0213593773        3.3616135219
  C        36.7612212555       18.0583174624        2.6430884582
  C        39.3993729807       17.0867797205        5.1739617637
  C        39.3796311703       17.1048399189        6.5955548543
  C        38.1643834452       17.2308134267        7.3402494737
  C        35.1454057370       26.6421771959        7.2949671006
  C        35.1757208898       26.6588769254        4.4858330144
  C        26.5732493620       17.8288263737        2.3301128019
  C        25.2583479316       17.8737343845        3.0372161915
  C        24.9936563418       18.8801022346        3.9784203565
  C        23.7759984601       18.9059438916        4.6527658460
  C        22.7934091192       17.9254797335        4.4091208295
  C        23.0524726570       16.9438952748        3.4354554957
  C        24.2709809079       16.9159155417        2.7596303346
  C        21.5294730806       17.9078542076        5.1817804627
  C        21.5527362517       17.9007445727        6.6033412180
  C        22.7708964630       17.7883304507        7.3462904171
  C        14.0466056166       17.8289254805        2.2938132287
  C        15.3514622552       17.8862128547        3.0191317119
  C        15.6085638035       18.8902288454        3.9657314761
  C        16.8176864464       18.9114544253        4.6584990273
  C        17.8040554372       17.9314858025        4.4267908949
  C        17.5517497580       16.9516235047        3.4480702625
  C        16.3420484902       16.9258587111        2.7568998937
  C        19.0731176306       17.9149046130        5.1961247423
  C        19.0712767553       17.9127691409        6.6186469569
  C        17.8638610231       17.8140032011        7.3792669666
  C        46.8018705590       17.2161226798        2.1622925887
  C        45.5085660757       17.1456053726        2.9028351998
  C        45.3040386668       16.1620264686        3.8832442535
  C        44.1200813017       16.1335680439        4.6156625263
  C        43.1090439039       17.0884905834        4.3910117136
  C        43.3102725625       18.0508011946        3.3827207207
  C        44.4951338515       18.0831909555        2.6509091458
  C        41.8557459723       17.0922004365        5.1813363360
  C        41.8643222777       17.0954400337        6.6037200456
  C        43.0746684522       17.1934832808        7.3598379093
  C        20.3177068656       17.9250365150        7.3276058004
  C        20.2977097550       17.8951706652        4.5145896225
  C        46.7846123231       17.2320007043       13.8815023457
  C        45.4830516380       17.1268930844       13.1622129145
  C        45.2656105889       16.1272125432       12.2016051959
  C        44.0782277274       16.0983775104       11.4741012061
  C        43.0776717860       17.0663824915       11.6888759803
  C        43.2863212338       18.0369551728       12.6868177137
  C        44.4745995139       18.0719072538       13.4099142039
  C        41.8299306458       17.0843823425       10.8932185485
  C        41.8512880743       17.0900826451        9.4717571534
  C        43.0685742726       17.1879147938        8.7266826463
  C        46.1535370679       26.6373532099        8.7210621077
  C        46.1620530608       26.6559479933       11.5307114316
  C        14.0446771159       17.8312479805       13.7035014254
  C        15.3653341761       17.9048372322       13.0120537050
  C        15.6393375955       18.9217303870       12.0853700513
  C        16.8681779737       18.9589655143       11.4302736904
  C        17.8502082367       17.9784456492       11.6763939610
  C        17.5828739883       16.9900102586       12.6409066934
  C        16.3560737291       16.9523287097       13.2995188455
  C        19.1177204390       17.9545748135       10.9080599121
  C        19.0946530336       17.9320419137        9.4865761001
  C        17.8752340989       17.8225375085        8.7452784548
  C        28.7957205577       14.1164869125        2.4021007489
  C        28.1952606823       12.9380203091        3.0912831922
  C        28.9226442614       12.1993900568        4.0359968671
  C        28.3311286836       11.1161309501        4.6817813225
  C        26.9978245215       10.7484669838        4.4085599728
  C        26.2926534853       11.4682610489        3.4273283158
  C        26.8821865444       12.5502094505        2.7788760156
  C        26.3327170037        9.6632634675        5.1664944300
  C        26.3151679921        9.6893247527        6.5874479475
  C        26.8135761046       10.8034952374        7.3345308859
  C        32.1803026880       21.2409211737        2.1509414021
  C        32.7753524333       22.4068593184        2.8675486385
  C        32.0299750455       23.0822188664        3.8461855460
  C        32.6021040001       24.1207112512        4.5741746802
  C        33.9350684093       24.5122104874        4.3439951365
  C        34.6625826729       23.8562084265        3.3331716078
  C        34.0931209929       22.8117603772        2.6073491110
  C        34.5643867004       25.5869163506        5.1447081919
  C        34.5586602861       25.5561275256        6.5663533100
  C        34.0590732726       24.4360343657        7.3028483952
  C        25.7038602459        8.6110269537        7.3043812610
  C        25.6993595020        8.6115390408        4.4910523114
  C        32.1200809328       21.1945062779       13.8416187180
  C        32.7054729533       22.3523002588       13.1060045789
  C        31.9759682806       23.0022453875       12.0987324737
  C        32.5515110041       24.0425595161       11.3737846367
  C        33.8717189139       24.4595369772       11.6345260248
  C        34.5830608984       23.8227677716       12.6695102283
  C        34.0110309869       22.7797806660       13.3929071293
  C        34.5102558010       25.5440943851       10.8542519614
  C        34.5307787283       25.5341364378        9.4321830781
  C        34.0457213923       24.4253466040        8.6694265322
  C        40.6121644722       17.0867757134        8.7507105043
  C        40.6003022122       17.1139719441       11.5609432179
  C        28.7176876617       14.0938385048       13.7823427677
  C        28.1129380372       12.9412327124       13.0520144202
  C        28.8536087949       12.2357922081       12.0910744686
  C        28.2768298835       11.1719414694       11.4017519428
  C        26.9430854149       10.7876157779       11.6468368945
  C        26.2204919025       11.4788414634       12.6374455212
  C        26.7961058617       12.5420602106       13.3302252975
  C        26.3050880978        9.6941064727       10.8752856783
  C        26.3022042681        9.7055558285        9.4534834352
  C        26.8053002219       10.8124539304        8.7001540124
  C        18.1353913477        3.1808509638        2.3222228897
  C        17.4059724550        4.2781539323        3.0207863849
  C        16.3905890438        3.9997327245        3.9486405429
  C        15.7428096375        5.0396817518        4.6121592300
  C        16.0943430132        6.3834421576        4.3721695056
  C        17.0833036403        6.6530106226        3.4079816505
  C        17.7324386814        5.6157003219        2.7429157363
  C        15.4700871827        7.4911649978        5.1352348848
  C        15.4855764194        7.4906153706        6.5569503951
  C        16.1871868556        6.4970451224        7.3101330199
  C        42.9458562381       31.8594064971        2.0779691676
  C        43.6461772927       30.7717900942        2.8219189746
  C        44.5920260187       31.0930819562        3.8077088132
  C        45.1977117590       30.0875183667        4.5553430238
  C        44.8709552524       28.7344880260        4.3407370694
  C        43.9447433191       28.4201686624        3.3278819613
  C        43.3359415512       29.4253293150        2.5798552647
  C        45.4886389574       27.6552326907        5.1439062998
  C        45.4930166705       27.6810018608        6.5655927979
  C        44.8058989201       28.6890438822        7.3121910191
  C        14.8566634928        8.5631471004        7.2693124665
  C        14.8746756411        8.5628692845        4.4566491647
  C        42.9463933463       31.9614503664       13.8038055086
  C        43.6915072007       30.8853892121       13.0902493853
  C        44.6564034158       31.1912766545       12.1182259979
  C        45.2778815902       30.1716827101       11.4004961280
  C        44.9537819497       28.8213820934       11.6378387279
  C        44.0198716271       28.5237232052       12.6482155666
  C        43.3916475601       29.5404976358       13.3604101769
  C        45.5629390005       27.7240240278       10.8526281933
  C        45.5334741236       27.7174647447        9.4313314980
  C        44.8271562142       28.7076894086        8.6783726861
  C        35.1323500052       26.6302989784        8.7296888619
  C        35.1149756019       26.6049020072       11.5394128435
  C        18.1485620109        3.2468448352       13.7015954395
  C        17.4299080442        4.3437812879       12.9923357119
  C        16.4149647814        4.0524908994       12.0684977211
  C        15.7666405075        5.0831102797       11.3930772393
  C        16.1210261023        6.4283730736       11.6160453117
  C        17.1120806189        6.7117693285       12.5736405841
  C        17.7597546554        5.6828636686       13.2534271400
  C        15.4905930091        7.5241017095       10.8435823683
  C        15.4966453151        7.5075724831        9.4224407452
  C        16.1934332408        6.5058893771        8.6757378968
  H        10.6725092791       12.4662669949       11.8990115519
  H        11.6946979932       10.5514425431       10.6571080700
  H        15.3912126173       11.1679087353       12.7678551698
  H        14.3507073932       13.0707492747       14.0131204467
  H        13.3762684042       11.6312544833        9.1961896354
  H        50.3226397938       22.7487380781       11.9821836059
  H        49.3194696353       24.6231252214       10.6760700349
  H        45.6415179216       24.1605216157       12.8579974207
  H        46.6623863808       22.2897587909       14.1663471226
  H        47.6297890508       23.5758986599        9.2410129312
  H        14.8717047850        8.5880768455       12.6034556470
  H        50.2872333282       22.7030598063        4.0649787397
  H        49.2691969420       24.5758998441        5.3650286384
  H        45.6100890071       24.1084982129        3.1516964683
  H        46.6521516005       22.2532807714        1.8374598997
  H        47.6078740379       23.5518947663        6.8019089248
  H        40.6329191716       17.0648124547        3.4182049178
  H        48.6869694310       14.0950002995       15.7948624781
  H        10.6813323111       12.4669521834        4.0986950830
  H        11.6895250143       10.5249979730        5.3024344417
  H        15.3931051786       11.1583065572        3.2101179513
  H        14.3645889275       13.0868103380        1.9948079394
  H        13.3758828908       11.6221819208        6.7581794565
  H        47.9299875176       14.2186881806        1.7157539769
  H        47.7799381906       14.3737089988       14.4900633258
  H        49.0822239815       18.5518389038        2.8720054082
  H        10.4156346018       14.1344328001        0.0038915215
  H        24.4833550502        3.0302017950       11.9105770916
  H        25.6211137629        4.8892251975       10.6819189030
  H        23.2375992912        7.7549356565       12.8282435145
  H        22.1190599553        5.8860400954       14.0590996535
  H        23.8174858725        5.7890389226        9.2471083426
  H        36.3706590610       32.1870629609       11.9667442735
  H        35.2435374697       30.3633185243       10.6887847105
  H        37.5108023082       27.4386617781       12.8811491384
  H        38.6175018330       29.2748702725       14.1689152205
  H        37.0112461810       29.4577111648        9.2692117147
  H        25.7210773006        8.6159731691       12.6393524705
  H        36.4537305827       32.2445094939        4.1132766727
  H        35.3391749636       30.4277718020        5.4082215872
  H        37.5244134413       27.4893149046        3.1503936430
  H        38.6132199884       29.3175207893        1.8421301196
  H        37.0316288343       29.4785621008        6.8318022648
  H        46.1087906506       26.5872540633        3.3905856147
  H        44.6680285998       35.1159893632       15.8088404220
  H        24.4478112638        3.0378164971        4.0805675228
  H        25.5880642905        4.8751069055        5.3263594759
  H        23.1797643135        7.7677049976        3.2456234515
  H        22.0518663070        5.9183438268        1.9991243263
  H        23.8073377788        5.7881711306        6.8085968490
  H        44.9529531841       34.3895754091        1.6997592901
  H        44.9008548913       34.2064726429       14.4854911261
  H        40.6653284593       33.2084783920        2.8579091559
  H        23.1506870888        1.9573885855        0.0096981463
  H        25.8018554661       19.6707140548       11.9257920624
  H        23.6352103649       19.7113374368       10.6907112705
  H        22.3548860793       16.2096601067       12.8345342657
  H        24.5294792861       16.1790952766       14.0638570477
  H        23.7234977878       17.6794712464        9.2424995536
  H        35.1497352011       15.4382802156       11.9949764876
  H        37.2707592590       15.3925608636       10.6794134468
  H        38.6893407680       18.8094376719       12.8735411147
  H        36.5639595544       18.8359024455       14.1911511939
  H        37.2200501546       17.3724205674        9.2382719528
  H        20.3551676767       17.9751577090       12.6639883545
  H        35.1487885390       15.4420401661        4.1020912191
  H        37.2879978744       15.3667425107        5.3872848765
  H        38.7298123898       18.7574100218        3.1677242493
  H        36.5892265620       18.8110462423        1.8775966995
  H        37.2305370910       17.3574260059        6.8000043119
  H        35.1475605075       26.6857505809        3.3981728808
  H        28.5097374204       21.0895362668       15.8891722274
  H        25.7548784474       19.6350703981        4.1618403288
  H        23.5701482956       19.6910921081        5.3771223089
  H        22.3020702225       16.1801775862        3.2414728436
  H        24.4868299422       16.1465843926        2.0220655075
  H        23.7026746051       17.6647641473        6.8025299975
  H        29.0085358814       21.7239965705        1.7467368287
  H        29.1581385344       21.7485413102       14.5490970139
  H        32.0658697180       18.5650819739        3.0067795698
  H        27.4089054187       19.0848391723        0.0908973925
  H        14.8502722510       19.6495617403        4.1433921841
  H        17.0130762583       19.6963711767        5.3860114063
  H        18.3026749330       16.1869327353        3.2601064510
  H        16.1357665343       16.1560399155        2.0170815620
  H        16.9216752739       17.6983937039        6.8514192445
  H        46.0904317803       15.4333102127        4.0652528277
  H        43.9641091123       15.3633591865        5.3678526988
  H        42.5384318948       18.7964586495        3.2034801077
  H        44.6651451190       18.8412965094        1.8899012248
  H        44.0153617846       17.3053077800        6.8283293132
  H        20.2921542122       17.9238019875        3.4264213991
  H        46.0425600683       15.3863835619       12.0270676580
  H        43.9129474258       15.3215429567       10.7307279888
  H        42.5196839636       18.7894169530       12.8596170119
  H        44.6553286712       18.8400305441       14.1578692734
  H        44.0047360398       17.2944000215        9.2670851794
  H        46.1985329278       26.6823191552       12.6181725692
  H        52.7409944724       21.0625817062        0.1997656978
  H        14.8794723957       19.6765677399       11.8953463071
  H        17.0801390383       19.7505072786       10.7146947973
  H        18.3325517221       16.2264619060       12.8380740773
  H        16.1339411542       16.1766935759       14.0283870032
  H        16.9415985520       17.7135530935        9.2889167209
  H        52.3219262763       21.6731412704       14.2894041286
  H        52.0129312739       21.7018489564        1.5007606451
  H        49.0668478116       18.6078194405       13.1992127351
  H        13.2471548140       19.0166102617       15.9721507368
  H        29.9494986110       12.4873916240        4.2496971426
  H        28.8971990257       10.5416641250        5.4118662629
  H        25.2624210158       11.1949641679        3.2085821924
  H        26.3352405918       13.1261209619        2.0364351850
  H        27.1767949853       11.6728094374        6.7948514255
  H        31.0065574629       22.7663356471        4.0326926389
  H        32.0198940275       24.6422598514        5.3306458832
  H        35.6943818840       24.1491662413        3.1501580938
  H        34.6609930812       22.2791599481        1.8479903668
  H        33.7119502804       23.5635560246        6.7566067894
  H        25.7313056374        8.5928943249        3.4030686308
  H        30.9614398321       22.6705163358       11.8907204261
  H        31.9793379788       24.5480852103       10.5990341164
  H        35.6052155373       24.1331352965       12.8760717277
  H        34.5656699569       22.2664311368       14.1748437902
  H        33.6892765230       23.5437398973        9.1946845128
  H        40.5956575976       17.0832193636       12.6488524970
  H        32.5083606345       14.1521350693        0.2637851243
  H        29.8843323091       12.5299140297       11.9061576831
  H        28.8586702325       10.6199557702       10.6667647592
  H        25.1889414115       11.1940143616       12.8342836907
  H        26.2353397680       13.0906523860       14.0833861977
  H        27.1604640279       11.6891466288        9.2337468906
  H        33.2908679192       14.1959871567       14.4306844345
  H        33.4034127860       14.4114057971        1.6092410106
  H        32.1279646612       18.5248599686       13.1636373087
  H        30.2121100120       14.1887798617        0.0857976693
  H        16.1188160053        2.9631901382        4.1352791003
  H        14.9535857572        4.8202029559        5.3280426645
  H        17.3653111254        7.6859349479        3.2145168316
  H        18.5140859470        5.8183439343        2.0146469637
  H        16.7536478873        5.7396325114        6.7766349374
  H        44.8285193229       32.1401401579        3.9817191782
  H        45.9377660111       30.3411874468        5.3111282347
  H        43.6816053582       27.3781557600        3.1581037758
  H        42.5989686545       29.1899591601        1.8155429518
  H        44.2303713215       29.4366699742        6.7738749480
  H        14.8506491431        8.5459451629        3.3684355761
  H        44.9001790742       32.2339396036       11.9269981706
  H        46.0249734558       30.4128459243       10.6474276083
  H        43.7624526645       27.4840363498       12.8394036911
  H        42.6447981913       29.3176422762       14.1184950072
  H        44.2684527898       29.4704421705        9.2129440912
  H        35.0704513244       26.6168347495       12.6268201629
  H        36.6049457267       35.1339724807        0.1858159409
  H        16.1440886667        3.0128843291       11.8985926933
  H        14.9744870961        4.8561967782       10.6828195153
  H        17.3952461267        7.7472779640       12.7508322820
  H        18.5423122643        5.8932813471       13.9785447660
  H        16.7647797933        5.7555894337        9.2141853798
  H        36.2785619096       34.4821897840       14.2682823889
  H        36.3806674394       34.2092619383        1.5049868874
  H        40.5794110021       33.2018093848       13.1487578162
  H        17.4707861845        1.9469252683       15.9689815764
  H        29.1691529408       19.5086428366        4.5617770626
  H        28.8188466778       18.5441242793       11.8776289852
  H        30.3954511853       15.6929675404       11.9036882364
  H        31.0721493606       15.6111928363        4.4991367951
  H        28.0310882705       17.8019628723        6.5965173228
  H        29.1284175759       15.7338593270        6.6114060984
  H        30.0146323370       19.7564068165       10.0692079403
  H        32.1359124961       16.1088491994       10.0151200041
  H        18.8534924740        0.8690672539        4.3404840455
  H        40.5277549925       35.2291812826       11.9470741985
  H        42.3232424227       34.4180792107       11.5860967904
  H        22.0880101270        0.6921225425        4.3565660867
  H        11.5970611096       18.7128255966        4.3873851395
  H        52.2647897800       18.4311456773       11.6723891939
  H        49.2554133158       16.4772400395       11.5794868157
  H        10.1501705870       15.7982384334        4.2978301219
  H        50.8499095536       17.6923277155       11.9492409981
  H        10.0459091161       17.3945475645        4.0570904440
  H        20.2146002057        0.0022565317        4.0471919687
  H        39.1833585595       36.1242808857       11.6812801906
 Ni        30.8203641338       17.7920397121       10.9064868811
 Ni        30.9433897991       16.4576824016        7.9192587181
 Ni        29.7604290164       18.4994787786        8.0779817217
 Ni        29.9705438642       17.4532706278        5.2421797698
  O        10.6498770220       14.3651402779       13.4807135645
  O        12.6131507476       14.6575369785       14.5788051178
  O        49.1477257118       16.8460176096       15.9846694321
  O        50.3500784997       20.9360941975       13.6431685272
  O        48.3484663755       20.5932609810       14.6609145617
  O        11.0513622123       17.0540105903       14.4955336668
  O        50.3210004874       20.8816661883        2.4118865376
  O        48.3467333163       20.5867089204        1.3322110170
  O        49.5435205098       18.2484482940        2.0733969962
  O        12.3588417844       18.6245717308        0.0048686753
  O        48.6931766427       14.1486258293       14.7461577291
  O         8.2098322500       14.2104101527        1.3276717378
  O        10.7353189409       14.5067345970        2.6694542415
  O        12.5717953646       14.5828388688        1.3335916152
  O        22.8448885995        2.0436621706       13.4819411880
  O        21.6056323835        3.5925902613       14.5844229331
  O        42.0580488828       34.1371912115       15.9738300433
  O        37.9815445483       33.1374897968       13.5675694612
  O        39.2180451052       31.5760485333       14.6614348748
  O        20.3083657174        1.0395768024       14.4969154531
  O        38.0249878738       33.1865218047        2.4199120703
  O        39.2192145682       31.5840106053        1.3314673965
  O        40.6522740689       33.7693079918        2.0653615396
  O        18.2555874851        1.3759186470        0.0019100935
  O        44.6222113085       35.1005336787       14.7536031733
  O        24.2054065719       -0.0000108288        1.3259312591
  O        22.7532238454        2.0576813632        2.5889619246
  O        21.6249403810        3.5966038265        1.3485374016
  O        27.4973725708       18.7487332285       13.4858457490
  O        26.7604972083       16.9366982280       14.6490738190
  O        30.6665862577       19.4096581603        0.0713167279
  O        33.5758862121       16.2821050227       13.6576645450
  O        34.2738124783       18.1659975599       14.7325792974
  O        29.5705263251       17.0658237923       14.5781389533
  O        33.5510389269       16.3400809817        2.4227071133
  O        34.2999581863       18.2378767557        1.4128471912
  O        31.6489781984       18.3179556538        2.1636683096
  O        30.3182042078       15.1543049726        0.0873674656
  O        28.5557274183       21.0369261181       14.8328875093
  O        28.5151987323       20.9563355911        1.4103194204
  O        27.4589879210       18.6802011182        2.6646342344
  O        26.6942658755       16.9303502095        1.4179541713
  O        13.1489536157       18.6929633558        2.5926366973
  O        13.9195682768       16.9162161370        1.4102425619
  O        50.5956682096       19.3501399880        0.0256859093
  O        47.6827267585       16.3270762220        2.4223402112
  O        46.9502991601       18.1755450648        1.3307331900
  O        11.0694606843       17.0156712933        1.4948240869
  O        47.6757317269       16.3358610473       13.6477462107
  O        46.9259571524       18.2357215332       14.6585587727
  O        49.5683548772       18.3177247961       13.9771896623
  O        10.3185059672       15.1003033261        0.0021758159
  O        52.6707319565       21.0278963191        1.2469397018
  O        12.1467951178       20.8911764251       14.6680919772
  O        13.1079829792       18.6137271991       13.3205217108
  O        13.9571103704       16.9869385159       14.6603664002
  O        29.9670249078       14.5004792031        2.7446310998
  O        28.0817192284       14.6569960973        1.4922019627
  O        32.0796291112       16.8695891557        0.0868985216
  O        30.9648856541       20.9529787628        2.4141846606
  O        32.9463378718       20.6012499232        1.3442690061
  O        29.5608493542       17.0845022003        1.5800263353
  O        30.9057145127       20.8758406862       13.5807115925
  O        32.8798710192       20.5843707738       14.6636387912
  O        31.6856524046       18.2514330589       13.9866711439
  O        28.2919883648       18.6810625241        0.0795345515
  O        32.4883920303       14.2152395230        1.3367542799
  O        32.3995984149       14.2151912196       14.8169541029
  O        29.8719389123       14.5030639980       13.4099368134
  O        28.0398748760       14.5868042797       14.7460156080
  O        17.8892002492        1.9666482792        2.6679272435
  O        18.9562757024        3.5271604842        1.4130824273
  O        39.1687264945       34.1387931942        0.0022772967
  O        43.2802251935       33.0589506536        2.3367650300
  O        42.0345392800       31.5064674485        1.2466871756
  O        20.3176807188        1.0366597462        1.4853629078
  O        43.2760985814       33.1825682952       13.5698191090
  O        42.0053055315       31.5840858491       14.5778939791
  O        40.5789744005       33.7748729836       13.9306127854
  O        22.3672413924        1.3846495097        0.0030556130
  O        36.6727087127       35.0998017917        1.2383975109
  O        16.4454854577        0.0642182363       14.6631373481
  O        17.9364498232        2.0433922830       13.3212681041
  O        18.9190908130        3.5931235052       14.6608736798
  O        29.7311445612       18.8270944332       12.0845677838
  O        29.8246918827       18.9749337118        4.0758792373
  O        31.1117652996       16.3311768809       12.0901984201
  O        31.1798802347       16.4842930532        4.0742819650
  O        31.8434777224       16.9234303827        9.5632558339
  O        30.0415442396       15.9534170577        6.3487502603
  O        30.5899632686       19.1225338361        9.5939461905
  O        28.8472754973       18.3260297644        6.4956123549
  O        39.4567146958       35.2437597137       11.9968791885
  O        19.1414486370        0.0046690734        3.9956805100
  O        41.9696899055       35.1727466731       12.0821378501
  O        21.6914599328       -0.0692367662        3.9009984866
  O        51.3649623356       18.6143170293       12.0003859828
  O        10.7511895286       18.7471887670        3.9100090981
  O        50.0799660838       16.4128590776       12.0865972403
  O         9.5243463499       16.4831004611        3.9962951392
 Zr         9.2961250344       16.0529501021       14.1772334553
 Zr        49.8356242873       16.0069479529        1.7516814552
 Zr        22.0728585121        0.0291521630       14.1841454481
 Zr        42.4606116998       35.1527498648        1.8059443943
 Zr        29.6225885525       19.0911384122       14.2813821494
 Zr        29.5792459708       19.1842108522        1.8831636793
 Zr        11.0373532680       19.0521976595        1.8327782445
 Zr        11.0430699706       19.1550196613       14.2462337355
 Zr        31.3323774861       16.1173259043        1.8976889636
 Zr        31.3913287275       16.0217627601       14.2783456801
 Zr        18.6007827677       -0.0020455802        1.7685341348
 Zr        18.5061250087       -0.0085258604       14.2085583510
 Zr        12.3012296317       16.3236614968       15.9852628553
 Zr        48.6150720017       18.8329373701        0.0155242452
 Zr        20.3148838171        2.4726686825       15.9856818037
 Zr        40.6428295218       32.6861364084       15.9730105586
 Zr        28.3471604195       16.3509290741        0.0890829837
 Zr        32.6298007650       18.8430244729        0.0612300779
  H        32.1724630863       15.3036988936        7.5649831661
  H        31.6224076578       14.8721123245        7.9792693411
