     586
 i =       83, E =     -4847.8643056025
  C        11.8586442814       14.0535120707       13.7364654262
  C        12.4562063478       12.8904614200       13.0182193894
  C        11.7047963574       12.1721201448       12.0759102509
  C        12.2811847154       11.1099309382       11.3835205598
  C        13.6214881594       10.7395574422       11.6118766373
  C        14.3542836618       11.4424488387       12.5861262473
  C        13.7813873273       12.5074002960       13.2776617415
  C        14.2611484671        9.6490026245       10.8384623677
  C        14.2568217300        9.6570938299        9.4167597809
  C        13.7438560374       10.7592908448        8.6628180218
  C        49.1266481048       21.2333886652       13.8746087268
  C        48.5499365893       22.4011907650       13.1473960562
  C        49.3000670420       23.0686998250       12.1665985859
  C        48.7330919189       24.1077625097       11.4333445047
  C        47.4024634149       24.5092331879       11.6617972636
  C        46.6713741372       23.8600921147       12.6750350112
  C        47.2338502972       22.8152397952       13.4044354160
  C        46.7722891498       25.5869590315       10.8645182252
  C        46.7615077928       25.5574489900        9.4427568533
  C        47.2614240710       24.4423460563        8.6992646007
  C        14.8608671010        8.5708005459        8.7035190911
  C        14.8916637106        8.5968974728       11.5151299644
  C        49.1134426311       21.2035513001        2.1504604452
  C        48.5282537338       22.3649521790        2.8776095847
  C        49.2674911173       23.0257413689        3.8704719166
  C        48.6911360097       24.0602959031        4.6019008302
  C        47.3607216252       24.4570712069        4.3636288726
  C        46.6402937967       23.8120666149        3.3401843304
  C        47.2138538528       22.7761406698        2.6084510007
  C        46.7222550550       25.5320321537        5.1546372155
  C        46.7339840019       25.5283911036        6.5763367159
  C        47.2492532659       24.4290931263        7.3327128492
  C        40.6471476602       17.1098862716        7.3043358438
  C        40.6528388916       17.1453285504        4.4952658519
  C        11.8829398368       14.0863988253        2.2905042374
  C        12.4722380073       12.9103488125        2.9945186671
  C        11.7150876125       12.1778742379        3.9214776258
  C        12.2816686280       11.0954428596        4.5899601045
  C        13.6201514279       10.7209987165        4.3573622695
  C        14.3576046269       11.4356117642        3.3954313984
  C        13.7921677437       12.5167391154        2.7226895898
  C        14.2539219387        9.6244296003        5.1278621609
  C        14.2530347467        9.6446879170        6.5497082178
  C        13.7433253051       10.7537275459        7.2967692199
  C        22.5121426675        3.2441260602       13.7490118162
  C        23.2279638277        4.3503714287       13.0515389352
  C        24.2240290901        4.0717069719       12.1040988300
  C        24.8507242659        5.1124351889       11.4233750029
  C        24.4969940449        6.4536407801       11.6706531534
  C        23.5298286738        6.7239182690       12.6556635111
  C        22.8983440435        5.6849931377       13.3344343702
  C        25.0982779789        7.5617875867       10.8938165035
  C        25.0568611406        7.5589742872        9.4727654173
  C        24.3504533888        6.5601345644        8.7299790888
  C        38.2987847310       31.9261684716       13.8445364722
  C        37.5609906940       30.8370727000       13.1398750433
  C        36.6005514516       31.1423592760       12.1625484426
  C        35.9744283803       30.1238740792       11.4486496369
  C        36.2913803906       28.7719394497       11.6885386080
  C        37.2210856339       28.4744661737       12.7035536520
  C        37.8519326745       29.4918240255       13.4162076642
  C        35.6845463256       27.6816080990       10.8894405083
  C        35.7239950156       27.6954565463        9.4663038643
  C        36.4323941282       28.6965028483        8.7310938451
  C        25.6705882003        8.6324203073        8.7506504611
  C        25.7026653658        8.6341201063       11.5619164424
  C        38.3275299756       31.9599842500        2.1629742088
  C        37.6051573018       30.8869900128        2.9055127480
  C        36.6799137552       31.1954308416        3.9151552507
  C        36.0682550780       30.1775686447        4.6447817016
  C        36.3651233813       28.8231978076        4.3894735836
  C        37.2680114374       28.5251997641        3.3495902375
  C        37.8824586065       29.5395293623        2.6216131054
  C        35.7550162642       27.7235157036        5.1728007785
  C        35.7602998278       27.7164868479        6.5965940821
  C        36.4487654726       28.7071594995        7.3635888294
  C        46.1359576939       26.6210275003        7.2864514180
  C        46.0881899330       26.5803155175        4.4785648944
  C        22.4566718271        3.2554795245        2.2636264335
  C        23.1411252715        4.3672777368        2.9903509306
  C        24.1416869399        4.0876599413        3.9343649040
  C        24.7595215095        5.1222795958        4.6326784561
  C        24.3962791965        6.4653068505        4.4086565414
  C        23.4182481414        6.7382293732        3.4338027760
  C        22.7958172706        5.7039643348        2.7362828014
  C        25.0194480398        7.5677830032        5.1816600269
  C        25.0167376298        7.5616750467        6.6043570258
  C        24.3299186123        6.5620645276        7.3634337547
  C        26.6194859127       17.8550430631       13.7817247668
  C        25.3107459625       17.9048935769       13.0619823240
  C        25.0402813719       18.9172950150       12.1270755730
  C        23.8277383626       18.9370187181       11.4403290325
  C        22.8473540500       17.9502292338       11.6700480869
  C        23.1125139263       16.9619256097       12.6365191604
  C        24.3281888881       16.9350010618       13.3186853490
  C        21.5745941697       17.9374302460       10.9048664590
  C        21.5776502682       17.9136553450        9.4829294736
  C        22.7853530803       17.7867710612        8.7270110544
  C        34.4985846716       17.2199489625       13.9140743065
  C        35.7838748482       17.1587191191       13.1676635491
  C        35.9776509403       16.1881355649       12.1722781206
  C        37.1527048438       16.1713052146       11.4286657761
  C        38.1649311637       17.1216336406       11.6638155025
  C        37.9756948232       18.0703382504       12.6867096676
  C        36.7971466548       18.0941736963       13.4261370859
  C        39.4113218792       17.1273472435       10.8718281245
  C        39.3992958427       17.1336564338        9.4502095948
  C        38.1889873095       17.2544114156        8.6991307578
  C        20.3324543598       17.9301078713        8.7719315951
  C        20.3492599940       17.9420455837       11.5851430507
  C        34.4827478209       17.2426722833        2.1813389203
  C        35.7834337079       17.1645626272        2.9015359995
  C        35.9958534984       16.1737093593        3.8721531864
  C        37.1805294342       16.1521749149        4.6012111776
  C        38.1794992527       17.1189287309        4.3751069646
  C        37.9735348252       18.0831413504        3.3713437618
  C        36.7861185766       18.1112597422        2.6464740518
  C        39.4264531808       17.1319604202        5.1659631382
  C        39.4072951039       17.1365936345        6.5867342339
  C        38.1930181778       17.2541920210        7.3321024838
  C        35.1296795600       26.6355069141        7.2987781911
  C        35.1662045300       26.6522738619        4.4885598094
  C        26.5921678319       17.7809993000        2.3676044698
  C        25.2819494032       17.8165321416        3.0836168436
  C        24.9989207367       18.8422261050        3.9993879248
  C        23.7750225379       18.8704080313        4.6626518766
  C        22.8047449498       17.8753359166        4.4323543797
  C        23.0840203796       16.8703302201        3.4884799604
  C        24.3078239404       16.8391238242        2.8235098645
  C        21.5351062775       17.8679724595        5.1957602214
  C        21.5582318880       17.8756131175        6.6167584446
  C        22.7765692780       17.7673180235        7.3610089757
  C        14.0478769317       17.8267111855        2.2960027415
  C        15.3533260124       17.8780492243        3.0241487525
  C        15.6196161919       18.8852297333        3.9650144339
  C        16.8295668018       18.9010707891        4.6575785924
  C        17.8088400314       17.9118521410        4.4330685621
  C        17.5466774915       16.9274460663        3.4613126237
  C        16.3366629338       16.9079012553        2.7695903625
  C        19.0787001479       17.8908483856        5.2033549394
  C        19.0762251900       17.8998789102        6.6262039491
  C        17.8673584292       17.8127353588        7.3860937686
  C        46.8070413050       17.2146559053        2.1577206311
  C        45.5155465573       17.1458517943        2.8926101666
  C        45.3089036229       16.1630733013        3.8724853225
  C        44.1267376701       16.1439478634        4.6055219100
  C        43.1250808455       17.1073406111        4.3784278601
  C        43.3268050140       18.0663151064        3.3679518587
  C        44.5097743998       18.0896777605        2.6360121987
  C        41.8776443117       17.1226602179        5.1696109559
  C        41.8907219249       17.1205499274        6.5911579796
  C        43.1029934987       17.2145336576        7.3427636935
  C        20.3217526854       17.9111520231        7.3375086055
  C        20.3052773382       17.8555595112        4.5246519262
  C        46.7911028118       17.2324511905       13.8816392463
  C        45.4962978338       17.1304175613       13.1574294520
  C        45.2892947521       16.1368428656       12.1884895491
  C        44.1080822730       16.1120294201       11.4530142823
  C        43.1064451714       17.0773758593       11.6715774694
  C        43.3048572565       18.0417410578       12.6772637108
  C        44.4872848706       18.0734059498       13.4075895343
  C        41.8628714724       17.0980037275       10.8759165092
  C        41.8833846856       17.1058913108        9.4548607538
  C        43.0992586654       17.2055016020        8.7099365008
  C        46.1536329919       26.6373972130        8.7209968714
  C        46.1621620782       26.6559807602       11.5306406727
  C        14.0443030626       17.8321478786       13.7046842815
  C        15.3656025220       17.9080070194       13.0150907500
  C        15.6395916107       18.9269982419       12.0908895823
  C        16.8690960313       18.9662534814       11.4372957908
  C        17.8507436431       17.9854896638       11.6829921674
  C        17.5835353851       16.9950434742       12.6453169691
  C        16.3561682428       16.9554763170       13.3023910660
  C        19.1183265174       17.9611747184       10.9155805014
  C        19.0962620928       17.9353385058        9.4943226910
  C        17.8772443642       17.8281421386        8.7519846669
  C        28.7893877130       14.0860128899        2.3964784287
  C        28.1657659261       12.9240346157        3.0894903207
  C        28.8868437971       12.1673429221        4.0253359263
  C        28.2771150804       11.0995894714        4.6783533028
  C        26.9339577739       10.7627223692        4.4159263526
  C        26.2339668518       11.4987601349        3.4434410437
  C        26.8404420185       12.5687658168        2.7910640970
  C        26.2618407970        9.6846641064        5.1756312346
  C        26.2549406836        9.7114024450        6.5960119033
  C        26.7574617353       10.8265732181        7.3387399705
  C        32.2010398353       21.2106603559        2.1513481507
  C        32.7802951530       22.3811793523        2.8721431487
  C        32.0462016973       23.0217898867        3.8825274627
  C        32.6101520677       24.0691633039        4.6048428749
  C        33.9256379291       24.5023012444        4.3446736132
  C        34.6406592259       23.8769568578        3.3045063402
  C        34.0789327650       22.8272278069        2.5807969463
  C        34.5527465657       25.5788031303        5.1450529766
  C        34.5471272489       25.5478059832        6.5681745523
  C        34.0532216861       24.4264300177        7.3053492456
  C        25.6535025111        8.6307239688        7.3166238671
  C        25.6274332722        8.6327247893        4.5031043902
  C        32.0853383759       21.1962115233       13.8673312478
  C        32.6550486290       22.3542744662       13.1182625057
  C        31.9370530874       22.9765631677       12.0841430164
  C        32.5140736116       24.0147836387       11.3538816058
  C        33.8211014796       24.4630164624       11.6369266184
  C        34.5180954178       23.8514844120       12.6977083272
  C        33.9484326068       22.8091315400       13.4225143804
  C        34.4652408115       25.5468370493       10.8593574548
  C        34.5006986721       25.5331770903        9.4364685010
  C        34.0296501475       24.4208596006        8.6721066384
  C        40.6428004317       17.1051730779        8.7375700177
  C        40.6363536364       17.1281397232       11.5460158351
  C        28.7456376170       14.0708844102       13.8134359004
  C        28.1321195795       12.9274820398       13.0723210897
  C        28.8591750149       12.2483002589       12.0821586837
  C        28.2760493969       11.1930120651       11.3838159317
  C        26.9512529103       10.7910272609       11.6509344357
  C        26.2426588441       11.4594631957       12.6666006234
  C        26.8234732435       12.5151234987       13.3664479371
  C        26.3050760825        9.7008595686       10.8819260184
  C        26.2782356536        9.7194553359        9.4606386065
  C        26.7658087217       10.8313028083        8.7043606761
  C        18.1353544678        3.1805173309        2.3222653983
  C        17.4060660226        4.2778595111        3.0210161717
  C        16.3906416093        3.9995511251        3.9488356039
  C        15.7429558225        5.0395751625        4.6123453185
  C        16.0945848485        6.3832845421        4.3722808064
  C        17.0836435994        6.6527435757        3.4081754780
  C        17.7326728671        5.6153602269        2.7431353388
  C        15.4703989807        7.4910860004        5.1352793257
  C        15.4860183428        7.4906686547        6.5569857318
  C        16.1876265960        6.4971112010        7.3101873688
  C        42.9457938574       31.8594294942        2.0779057608
  C        43.6462229736       30.7718279464        2.8218325339
  C        44.5920912038       31.0932054423        3.8075719488
  C        45.1978715212       30.0877035322        4.5552218494
  C        44.8712225790       28.7346469305        4.3406505692
  C        43.9450253004       28.4202516880        3.3278000170
  C        43.3360949865       29.4253468808        2.5797797148
  C        45.4889621167       27.6554241776        5.1438344562
  C        45.4932293689       27.6811368167        6.5655263359
  C        44.8061092072       28.6891742410        7.3121331352
  C        14.8571045563        8.5632309592        7.2692941342
  C        14.8748980778        8.5626981096        4.4566463826
  C        42.9463224415       31.9613317529       13.8038586702
  C        43.6914897161       30.8852575566       13.0903296347
  C        44.6564141125       31.1912079561       12.1183574534
  C        45.2779179801       30.1716674539       11.4005685266
  C        44.9538504042       28.8213573476       11.6378732000
  C        44.0199428487       28.5236278185       12.6482382093
  C        43.3916762293       29.5403583386       13.3604686914
  C        45.5629938419       27.7240431692       10.8525832839
  C        45.5335604329       27.7174988027        9.4312807026
  C        44.8273034325       28.7077718491        8.6783212118
  C        35.1086249188       26.6267034929        8.7346126390
  C        35.0710470020       26.6081397201       11.5456281229
  C        18.1484785495        3.2466914184       13.7014875564
  C        17.4298492397        4.3436326867       12.9921807231
  C        16.4147416988        4.0524080191       12.0685135688
  C        15.7664515725        5.0830852182       11.3931371823
  C        16.1210736884        6.4282950965       11.6159990939
  C        17.1123031978        6.7116237626       12.5734157273
  C        17.7599552873        5.6826699572       13.2531397996
  C        15.4907136808        7.5240815161       10.8435685403
  C        15.4969401968        7.5076302326        9.4224375918
  C        16.1937998882        6.5059568194        8.6757906167
  H        10.6728545294       12.4666790860       11.8984605314
  H        11.6950359336       10.5518760853       10.6565364854
  H        15.3910374389       11.1672148888       12.7684757177
  H        14.3504778358       13.0700713371       14.0138047425
  H        13.3767270902       11.6313777279        9.1961096440
  H        50.3228255509       22.7487676734       11.9819892600
  H        49.3195692574       24.6231665368       10.6758584091
  H        45.6417499434       24.1605706605       12.8579513745
  H        46.6626687792       22.2897311293       14.1662183949
  H        47.6296184419       23.5758168096        9.2409433309
  H        14.8715804419        8.5878947771       12.6034273983
  H        50.2875097124       22.7028574442        4.0654335958
  H        49.2694523680       24.5757668715        5.3654473830
  H        45.6108361675       24.1091642085        3.1511813744
  H        46.6529211101       22.2538343502        1.8370680852
  H        47.6078025765       23.5518756044        6.8018210809
  H        40.6542056457       17.1160958130        3.4073833475
  H        48.6871675408       14.0944599141       15.7950575047
  H        10.6818735434       12.4675052661        4.0995051209
  H        11.6900780495       10.5256068785        5.3032739992
  H        15.3926569436       11.1568982167        3.2086326439
  H        14.3640149569       13.0853514917        1.9931818705
  H        13.3764269618       11.6222999257        6.7581154849
  H        47.9302488688       14.2183439550        1.7154583495
  H        47.7801358771       14.3732981432       14.4901915540
  H        49.0830017250       18.5518196716        2.8721458817
  H        10.4158458666       14.1341753923        0.0037290157
  H        24.4842037132        3.0333310959       11.9109783390
  H        25.6225537326        4.8963271384       10.6878250382
  H        23.2496272808        7.7566279365       12.8526237357
  H        22.1288674191        5.8838127241       14.0763955183
  H        23.7949370148        5.8011543845        9.2731039305
  H        36.3692701647       32.1861989796       11.9637895177
  H        35.2309483432       30.3672183415       10.6927509081
  H        37.4753971230       27.4345390111       12.8980500189
  H        38.5951701723       29.2665349130       14.1774811696
  H        36.9945863207       29.4475204250        9.2783851615
  H        25.7498559506        8.6125312042       12.6491904606
  H        36.4604126710       32.2397387289        4.1256923871
  H        35.3456936859       30.4249231534        5.4193479518
  H        37.5111747227       27.4847810093        3.1441695270
  H        38.6015485591       29.3115444036        1.8385343549
  H        37.0246135563       29.4659757860        6.8416247369
  H        46.1094327487       26.5876175673        3.3905251242
  H        44.6681519072       35.1160702297       15.8087803300
  H        24.4260424437        3.0513040515        4.1021567359
  H        25.5398731304        4.8994505310        5.3572054415
  H        23.1264267579        7.7707164590        3.2527398652
  H        22.0247785531        5.9105632366        1.9976924932
  H        23.7580513790        5.8051625687        6.8344358080
  H        44.9535161264       34.3902756706        1.7002779403
  H        44.9015844259       34.2066615422       14.4854961723
  H        40.6649364679       33.2078919607        2.8575019082
  H        23.1501209894        1.9574479785        0.0108725913
  H        25.7903538645       19.6872183107       11.9590340840
  H        23.6219387196       19.7271581792       10.7211603022
  H        22.3668464102       16.1915509179       12.8224109674
  H        24.5448790196       16.1575125127       14.0476655949
  H        23.7250770069       17.6697350850        9.2590326275
  H        35.1933627390       15.4574791535       11.9898674762
  H        37.3042151429       15.4127073118       10.6639928971
  H        38.7514545892       18.8109419216       12.8696490022
  H        36.6301933611       18.8413314460       14.1984479344
  H        37.2524253917       17.3788131893        9.2352007348
  H        20.3536876446       17.9816298784       12.6730266537
  H        35.2147235115       15.4365873231        4.0452563781
  H        37.3495981067       15.3819882256        5.3506896099
  H        38.7415105813       18.8333457420        3.1947810459
  H        36.6022592780       18.8717715582        1.8912337244
  H        37.2597109640       17.3787701987        6.7908391376
  H        35.1377921522       26.6815442756        3.4009114916
  H        28.5110903100       21.0869283982       15.8727909085
  H        25.7442568458       19.6166710644        4.1673508082
  H        23.5550487181       19.6698593744        5.3668494380
  H        22.3434788351       16.0937365836        3.3081560758
  H        24.5377482553       16.0563796930        2.1043979453
  H        23.7114905706       17.6347406997        6.8241081271
  H        28.9657989324       21.7237596475        1.7863222195
  H        29.1810291971       21.7192872059       14.5418926068
  H        32.1909847825       18.5504687814        2.9541591352
  H        27.4141191647       19.0713650577        0.0770141302
  H        14.8679954976       19.6521929812        4.1386503445
  H        17.0307003736       19.6896086779        5.3796342708
  H        18.2900583725       16.1541984965        3.2782798375
  H        16.1246132214       16.1346657012        2.0349358032
  H        16.9251918566       17.6994020066        6.8577391436
  H        46.0922844040       15.4309621529        4.0532455718
  H        43.9638110375       15.3774631454        5.3599161198
  H        42.5584178127       18.8158328665        3.1905116779
  H        44.6869918622       18.8445455834        1.8736789024
  H        44.0422707945       17.3271153140        6.8091254206
  H        20.3026118658       17.8731697097        3.4361841920
  H        46.0693786964       15.3991350578       12.0154442960
  H        43.9467098281       15.3410641537       10.7028041590
  H        42.5347835306       18.7907869960       12.8491210199
  H        44.6642322265       18.8357883439       14.1621647899
  H        44.0359626306       17.3105922572        9.2495865745
  H        46.1987091208       26.6823496120       12.6181012898
  H        52.7408041320       21.0623672058        0.1997021378
  H        14.8791647262       19.6814679855       11.9016717676
  H        17.0816698857       19.7591349613       10.7233755753
  H        18.3335085063       16.2315199936       12.8413896743
  H        16.1332297890       16.1785439615       14.0296108840
  H        16.9424390457       17.7262921551        9.2950138208
  H        52.3209937822       21.6728399505       14.2898353100
  H        52.0121513315       21.7009957574        1.5007840496
  H        49.0676834754       18.6084254875       13.1993577260
  H        13.2474424897       19.0166245593       15.9729617929
  H        29.9260466671       12.4218116498        4.2221875394
  H        28.8366351815       10.5116877885        5.4027722671
  H        25.1964296213       11.2465694398        3.2341195361
  H        26.2998259669       13.1579814209        2.0543447091
  H        27.1102135059       11.6989073277        6.7968257115
  H        31.0414013152       22.6704657508        4.1038310495
  H        32.0332870544       24.5643979304        5.3826724740
  H        35.6591710689       24.1983015788        3.0963120129
  H        34.6393184768       22.3211574599        1.7979616624
  H        33.7156282039       23.5500128461        6.7598842118
  H        25.6551058395        8.6129750681        3.4150636820
  H        30.9316394432       22.6277845632       11.8562848031
  H        31.9480181153       24.4981871782       10.5605167114
  H        35.5300536093       24.1813866030       12.9234905906
  H        34.4960119122       22.3163151628       14.2224030773
  H        33.6754029018       23.5397638601        9.1989210703
  H        40.6337980685       17.0950113560       12.6337634347
  H        32.5262122562       14.1475022435        0.2391810594
  H        29.8834895269       12.5576389765       11.8824413166
  H        28.8482644581       10.6601005607       10.6273357368
  H        25.2178446404       11.1619091001       12.8791891908
  H        26.2736462579       13.0463279651       14.1397662906
  H        27.1232535703       11.7074818841        9.2370573662
  H        33.3048423151       14.1747059206       14.4381099102
  H        33.4121250449       14.3638434977        1.6223664598
  H        32.1005520543       18.4712399657       13.1234227443
  H        30.2305231436       14.1811731805        0.0905965893
  H        16.1187802323        2.9630285968        4.1354661215
  H        14.9536805219        4.8201904722        5.3282003428
  H        17.3657027026        7.6856455579        3.2146850172
  H        18.5143311728        5.8178775256        2.0148446155
  H        16.7540867166        5.7396933490        6.7766937462
  H        44.8285275052       32.1402826147        3.9815512458
  H        45.9379370477       30.3414617626        5.3109682230
  H        43.6820373078       27.3782031863        3.1580000681
  H        42.5990954879       29.1899517304        1.8154970097
  H        44.2306933539       29.4368830667        6.7738095083
  H        14.8506764188        8.5455721250        3.3684402523
  H        44.9001664491       32.2338855097       11.9271684652
  H        46.0250258271       30.4128948996       10.6475344055
  H        43.7626043135       27.4839180400       12.8394148012
  H        42.6447897032       29.3174924484       14.1185194391
  H        44.2686666013       29.4705788968        9.2128904111
  H        35.0184454323       26.6241026167       12.6326916518
  H        36.6050111625       35.1335809304        0.1860578612
  H        16.1437270602        3.0128182499       11.8987138180
  H        14.9741834489        4.8562512095       10.6829800543
  H        17.3956651664        7.7471038227       12.7504492996
  H        18.5427156140        5.8929902347       13.9780631637
  H        16.7650865525        5.7556458893        9.2142903022
  H        36.2785906469       34.4818218845       14.2682041566
  H        36.3810473092       34.2089710969        1.5053462931
  H        40.5785208345       33.2007842264       13.1491713497
  H        17.4707491415        1.9461057316       15.9689097245
  H        28.7323618130       18.9148055801        4.2160637308
  H        28.8465066402       18.6575085646       11.7992453504
  H        32.4494021605       16.1768068346       11.7943499877
  H        30.9412065803       15.1670328770        4.1825949137
  H        28.0847898694       16.8687480956        6.3392143144
  H        29.5255247731       15.1694706158        6.1643998976
  H        30.4762478717       19.8714759640       10.2937619979
  H        32.7396412469       17.7949009105        9.1524278762
  H        28.7956907316       17.3537376432        9.0239883534
  H        18.8535138121        0.8689636892        4.3402066422
  H        40.5279839329       35.2290484338       11.9471841304
  H        42.3229522602       34.4178910635       11.5860978432
  H        22.0879249096        0.6921096470        4.3562117212
  H        11.5971664430       18.7134822241        4.3877874739
  H        52.2642910263       18.4309371803       11.6717025542
  H        49.2549762552       16.4779455903       11.5801889179
  H        10.1500138485       15.7981403840        4.2985253036
  H        50.8494395911       17.6920167856       11.9494249106
  H        10.0459721338       17.3941633619        4.0572918062
  H        20.2148092555        0.0020823054        4.0470827418
  H        39.1835681832       36.1243771903       11.6816585327
 Ni        30.8169586393       17.5942275187       10.6644369606
 Ni        31.0241276812       16.4574778556        7.9115845714
 Ni        29.8826884150       19.2161361865        7.6606009828
 Ni        30.3100823366       17.3586023592        5.0001608715
  O        10.6500059656       14.3649831730       13.4806687898
  O        12.6132360857       14.6575064705       14.5787784221
  O        49.1486183221       16.8459993515       15.9848196433
  O        50.3502777763       20.9360395132       13.6431110554
  O        48.3486205743       20.5934732383       14.6608614050
  O        11.0518486143       17.0538979874       14.4955731540
  O        50.3214476170       20.8817104903        2.4118646703
  O        48.3469537055       20.5869363578        1.3323457213
  O        49.5442860035       18.2485510995        2.0734854964
  O        12.3591539827       18.6245593036        0.0050264670
  O        48.6933711779       14.1483130639       14.7463000237
  O         8.2101033727       14.2100194552        1.3274779487
  O        10.7355818695       14.5066437631        2.6694896999
  O        12.5719289337       14.5828198223        1.3335934866
  O        22.8446860208        2.0433479209       13.4820109582
  O        21.6051970999        3.5920990507       14.5847483939
  O        42.0577433084       34.1368283996       15.9737791939
  O        37.9812151491       33.1354395527       13.5669350167
  O        39.2170903455       31.5746913563       14.6604751485
  O        20.3081000944        1.0388385660       14.4966058317
  O        38.0241725132       33.1847254466        2.4207197443
  O        39.2183547638       31.5830132301        1.3322991109
  O        40.6521754781       33.7689878759        2.0651325114
  O        18.2556996197        1.3752951255        0.0018244577
  O        44.6222246677       35.1004871622       14.7535948673
  O        24.2053147102        0.0000670056        1.3259535866
  O        22.7528194097        2.0584076415        2.5890757355
  O        21.6233984038        3.5951788920        1.3459199669
  O        27.4981880523       18.7458775079       13.4851926374
  O        26.7672558564       16.9331242602       14.6518608478
  O        30.6939127952       19.3498633467        0.0585226212
  O        33.6260144126       16.3242192493       13.6587046281
  O        34.3469606827       18.1837885225       14.7410099534
  O        29.5994336575       17.0211405253       14.5689914642
  O        33.6233734957       16.3285990812        2.4155337971
  O        34.3089539397       18.2470736655        1.4115493208
  O        31.6841482117       18.2568474968        2.1799692789
  O        30.3279896072       15.1475138311        0.0945918953
  O        28.5538308793       21.0295703831       14.8267548502
  O        28.5164436321       20.9476164556        1.4120927084
  O        27.4964144369       18.6059629875        2.7410842841
  O        26.6955409177       16.9295464591        1.4177604243
  O        13.1513576660       18.6923628547        2.5935577500
  O        13.9202933067       16.9159310621        1.4106404010
  O        50.5964825674       19.3504428236        0.0261803588
  O        47.6867541438       16.3255023794        2.4209119998
  O        46.9539321919       18.1758322702        1.3283185875
  O        11.0702434184       17.0154537744        1.4950977130
  O        47.6798611652       16.3343124809       13.6488093265
  O        46.9310052546       18.2348659141       14.6602623060
  O        49.5689947359       18.3178084470       13.9772600793
  O        10.3187313979       15.1000488068        0.0021488574
  O        52.6708094540       21.0278313656        1.2469795179
  O        12.1468464339       20.8912070244       14.6680972620
  O        13.1077277271       18.6138941733       13.3206560038
  O        13.9571581183       16.9869340024       14.6605571503
  O        29.9792656215       14.4302136663        2.7318894962
  O        28.0845355834       14.6536823328        1.4975743209
  O        32.1494176002       16.8490464597        0.0726811115
  O        30.9960108889       20.8876142165        2.4231830059
  O        32.9597080187       20.5900061982        1.3321413998
  O        29.5764976492       17.0710108723        1.5886868265
  O        30.8574426237       20.8831783537       13.6505304477
  O        32.8743640395       20.5842895351       14.6592294040
  O        31.6910342070       18.2494593993       13.9781652595
  O        28.2998294019       18.6736606865        0.0774768494
  O        32.4964248835       14.2068709267        1.3272537226
  O        32.4124468984       14.2129373787       14.8213676384
  O        29.9160953892       14.4387821606       13.4810964642
  O        28.0392483762       14.5895284044       14.7502820796
  O        17.8890518989        1.9663178587        2.6679275377
  O        18.9560720184        3.5269705825        1.4130835111
  O        39.1685312008       34.1384173110        0.0022338351
  O        43.2802080135       33.0589426773        2.3367194550
  O        42.0344547114       31.5064463803        1.2466760589
  O        20.3173826108        1.0363150348        1.4855759288
  O        43.2760169209       33.1823903090       13.5697922714
  O        42.0052229312       31.5840425657       14.5779374106
  O        40.5788312880       33.7745070147       13.9305538580
  O        22.3670594342        1.3842037133        0.0029226903
  O        36.6727461660       35.0996102510        1.2385618359
  O        16.4454783506        0.0639105590       14.6630356825
  O        17.9364136836        2.0432438682       13.3212351709
  O        18.9189117098        3.5930739864       14.6608075234
  O        29.7777111007       18.7553282001       12.0696312692
  O        29.6931047851       19.0487840311        4.0658176431
  O        31.5147678186       16.1958386465       12.0723588021
  O        31.4748740084       15.9804103968        4.0702771449
  O        32.2467737480       16.9987679367        9.4061858050
  O        29.6915506070       17.7260567144        8.9856992884
  O        29.6037311453       16.1041634624        6.4171548616
  O        31.2322521898       18.1582170260        6.6657582456
  O        30.5736882258       20.4469034462        9.4916509349
  O        27.2469842086       17.4373990848        6.3394649348
  O        39.4567927668       35.2436559011       11.9968372606
  O        19.1414788094        0.0044568292        3.9956752354
  O        41.9696467046       35.1727027535       12.0821050646
  O        21.6913100798       -0.0693509656        3.9008463149
  O        51.3648060648       18.6142188515       12.0004126879
  O        10.7514839519       18.7472875044        3.9100373117
  O        50.0799680285       16.4129292865       12.0864963690
  O         9.5245004436       16.4829966036        3.9964149200
 Zr         9.2959108450       16.0523755910       14.1774431715
 Zr        49.8359532003       16.0064601657        1.7514964799
 Zr        22.0729754539        0.0288583204       14.1840848976
 Zr        42.4605727714       35.1525224865        1.8056208207
 Zr        29.6231089052       19.0579718459       14.2355001883
 Zr        29.6147124374       19.1838390109        1.8359735833
 Zr        11.0376160690       19.0518891163        1.8328615914
 Zr        11.0428611036       19.1547803067       14.2463881120
 Zr        31.3842659300       16.0796391081        1.8561007786
 Zr        31.4103710954       15.9981717981       14.2264102885
 Zr        18.6007407510       -0.0028101218        1.7688193742
 Zr        18.5060300139       -0.0093494454       14.2082680499
 Zr        12.3007217838       16.3235436949       15.9852102027
 Zr        48.6160879754       18.8331046512        0.0155880772
 Zr        20.3142221881        2.4718490388       15.9849946643
 Zr        40.6421401373       32.6855767133       15.9729761714
 Zr        28.3718655056       16.3355270104        0.0836959394
 Zr        32.6628212167       18.8148202076        0.0361067954
  H        32.0935071782       18.5696122559        6.4937937074
  O        30.7500904495       14.7311970880        9.4033132761
  H        31.0055390775       15.1614236224       10.2580816102
  H        29.8364775602       14.4365360614        9.5532102296
  O        32.4450472127       15.4544872583        6.6591733285
  H        33.3543703178       15.7018882743        6.8898212258
  H        32.2933859006       15.7283279956        5.7106444991
  O        27.7128572992       19.7095756739        7.6585425608
  H        27.4140697270       18.8888723451        7.1567691432
  H        27.2765911485       19.6754013515        8.5246154686
  O        30.0337277533       20.6669749151        6.1627771081
  H        29.9761709667       20.1414808766        5.2972214579
  H        29.2079954647       21.1785632248        6.2053242535
  H        26.8234329285       17.3429005369        5.4705978517
  H        31.4852828737       20.7775311824        9.5306404844
