     586
 i =      197, E =     -4847.8716630133
  C        11.8577830531       14.0530737235       13.7376196818
  C        12.4527911455       12.8880605203       13.0213622557
  C        11.6978097268       12.1677928415       12.0833799520
  C        12.2713294454       11.1034587952       11.3922924614
  C        13.6122295480       10.7335104781       11.6174609792
  C        14.3486370106       11.4382400702       12.5875528771
  C        13.7784564515       12.5051583029       13.2781712932
  C        14.2489221644        9.6418976796       10.8436449965
  C        14.2397928665        9.6486842677        9.4220182763
  C        13.7252493110       10.7507308454        8.6689374096
  C        49.1268781862       21.2330859667       13.8745540498
  C        48.5500491257       22.4009742965       13.1474042216
  C        49.3000063977       23.0683140291       12.1663730210
  C        48.7329691712       24.1073875667       11.4331442442
  C        47.4024016860       24.5089241704       11.6617836822
  C        46.6715272340       23.8600410130       12.6753516490
  C        47.2340892743       22.8152271430       13.4047397001
  C        46.7719915934       25.5865598595       10.8645531453
  C        46.7609396517       25.5570555665        9.4427875992
  C        47.2611192005       24.4421454006        8.6991851165
  C        14.8415156087        8.5617119387        8.7080851919
  C        14.8819029787        8.5909409404       11.5195113352
  C        49.1131030596       21.2034822068        2.1504781390
  C        48.5276105580       22.3648824207        2.8775430994
  C        49.2668755964       23.0260010970        3.8701617885
  C        48.6904135373       24.0605443990        4.6015578788
  C        47.3598311667       24.4568995271        4.3635539890
  C        46.6393810684       23.8116189512        3.3402937424
  C        47.2130773906       22.7757406479        2.6085657729
  C        46.7211943129       25.5317495036        5.1546365337
  C        46.7330131651       25.5280537618        6.5763461627
  C        47.2487948887       24.4289340232        7.3326337965
  C        40.6227011186       17.0968954918        7.3141634579
  C        40.6281620811       17.1054162496        4.5044569423
  C        11.8819314823       14.0862391403        2.2905175726
  C        12.4675399924       12.9092974128        2.9956636585
  C        11.7057411194       12.1789270607        3.9206033413
  C        12.2673626066       11.0952865057        4.5911117622
  C        13.6054703701       10.7174509898        4.3624259935
  C        14.3478250608       11.4302714134        3.4027990701
  C        13.7873574295       12.5127491809        2.7280213057
  C        14.2342975556        9.6184536786        5.1334109416
  C        14.2318971770        9.6367143756        6.5552229516
  C        13.7229225216       10.7455201739        7.3029549791
  C        22.5141168807        3.2437919201       13.7459310117
  C        23.2312740618        4.3462732573       13.0453274103
  C        24.2297245455        4.0601921228       12.1025326239
  C        24.8627760182        5.0956210284       11.4203975775
  C        24.5129832435        6.4391587006       11.6610025124
  C        23.5414678962        6.7168151658       12.6398101507
  C        22.9038099221        5.6829566073       13.3206520528
  C        25.1308829538        7.5397617086       10.8873823860
  C        25.1166517006        7.5291773474        9.4659110379
  C        24.4055893363        6.5376900390        8.7177279345
  C        38.2974971991       31.9289454705       13.8472319496
  C        37.5560681358       30.8406006844       13.1464374424
  C        36.5931563274       31.1476311234       12.1725716035
  C        35.9636931576       30.1296368122       11.4613626949
  C        36.2817818356       28.7783824219       11.7009806101
  C        37.2133901631       28.4789650804       12.7131168596
  C        37.8469636549       29.4957994277       13.4235865533
  C        35.6749689660       27.6887235045       10.9018744777
  C        35.7203669756       27.7005717000        9.4801481546
  C        36.4296384211       28.7029626768        8.7457850232
  C        25.7599596103        8.5885588016        8.7480789574
  C        25.7270311475        8.6139518336       11.5606012504
  C        38.3296527362       31.9613142492        2.1661743780
  C        37.6116950847       30.8872533134        2.9141053817
  C        36.6794208508       31.1948115051        3.9173911183
  C        36.0702281409       30.1767386933        4.6496164601
  C        36.3776275152       28.8230808729        4.4039799764
  C        37.2897599658       28.5254939856        3.3724165582
  C        37.9007447340       29.5400128656        2.6412554368
  C        35.7668721861       27.7226687349        5.1878221945
  C        35.7671538050       27.7177421222        6.6109294215
  C        36.4503020050       28.7122652559        7.3791104183
  C        46.1348065491       26.6205121043        7.2865931533
  C        46.0869136421       26.5799883325        4.4786821814
  C        22.4684114882        3.2566053682        2.2653066040
  C        23.1693486638        4.3626795372        2.9879151831
  C        24.1765556618        4.0720845071        3.9220319150
  C        24.8125361991        5.0988108728        4.6162631318
  C        24.4623846080        6.4468027184        4.3997136676
  C        23.4776664802        6.7307781088        3.4344265618
  C        22.8370588221        5.7041559618        2.7405496522
  C        25.1036275168        7.5397149903        5.1743456458
  C        25.1030244756        7.5289486289        6.5971349785
  C        24.3976128971        6.5386822761        7.3512731210
  C        26.6234691895       17.8547282402       13.7710386825
  C        25.3231642077       17.8901154610       13.0361167577
  C        25.0676370797       18.8774316419       12.0707787117
  C        23.8531368833       18.8968595553       11.3877619624
  C        22.8573649086       17.9327812300       11.6474609190
  C        23.1115004436       16.9656086865       12.6385912677
  C        24.3275888302       16.9402076004       13.3194018772
  C        21.5817401067       17.9210390492       10.8880693842
  C        21.5808230829       17.9020227256        9.4655654171
  C        22.7849771981       17.7758082483        8.7033673901
  C        34.4257754162       17.2244476860       13.8811741822
  C        35.7216071319       17.1692133356       13.1435732037
  C        35.9318179437       16.1963007155       12.1536972084
  C        37.1178646130       16.1768990406       11.4258612677
  C        38.1267906627       17.1296313455       11.6675438631
  C        37.9205909080       18.0817185564       12.6838814257
  C        36.7319425386       18.1056733913       13.4100622588
  C        39.3818597465       17.1330644838       10.8827694205
  C        39.3735089023       17.1372398919        9.4611878672
  C        38.1644669953       17.2611150128        8.7071268368
  C        20.3329911698       17.9257626867        8.7594713013
  C        20.3579238225       17.9256962201       11.5729233035
  C        34.4345478102       17.2467715601        2.2044968689
  C        35.7305784244       17.1523311627        2.9350093558
  C        35.9336751341       16.1768989643        3.9225410451
  C        37.1270406401       16.1440161055        4.6403773443
  C        38.1456771259       17.0846003161        4.3890694357
  C        37.9462805633       18.0347044612        3.3703795365
  C        36.7522517497       18.0731485429        2.6569057775
  C        39.3993436798       17.0974105354        5.1748354586
  C        39.3829414971       17.1197712114        6.5956721576
  C        38.1690946815       17.2517676232        7.3410089801
  C        35.1366592897       26.6366687488        7.3130875971
  C        35.1817109716       26.6491905842        4.5032778268
  C        26.5678713096       17.8250494847        2.3316826438
  C        25.2547610967       17.8742099852        3.0366505420
  C        24.9915213204       18.8777400890        3.9815275804
  C        23.7737869033       18.9030230283        4.6550536488
  C        22.7893588284       17.9264887757        4.4045432421
  C        23.0458943713       16.9489581781        3.4259370261
  C        24.2651888834       16.9199677372        2.7527264697
  C        21.5261289206       17.9068882748        5.1772905862
  C        21.5517717181       17.8940814790        6.5985427742
  C        22.7710610465       17.7728700743        7.3374581618
  C        14.0461770044       17.8291873226        2.2937432691
  C        15.3500879546       17.8870230115        3.0190387125
  C        15.6056947593       18.8906542406        3.9664569621
  C        16.8144324465       18.9124154655        4.6595691407
  C        17.8014020448       17.9333460586        4.4270940981
  C        17.5505118359       16.9539459669        3.4475363691
  C        16.3412884862       16.9275803963        2.7560245225
  C        19.0705595736       17.9165291908        5.1953483807
  C        19.0705598603       17.9125091871        6.6178027537
  C        17.8642881786       17.8156524195        7.3803919330
  C        46.8021349315       17.2157961827        2.1612551980
  C        45.5075843689       17.1448315374        2.9001426960
  C        45.3006417392       16.1592442282        3.8778195051
  C        44.1161975865       16.1315426251        4.6095350830
  C        43.1077673650       17.0893920864        4.3864171957
  C        43.3108235046       18.0532203556        3.3801197949
  C        44.4961845322       18.0847266297        2.6491351670
  C        41.8553974922       17.0961068259        5.1780970304
  C        41.8667260404       17.1021743193        6.6004467503
  C        43.0782759609       17.1970788019        7.3551947297
  C        20.3179764044       17.9200182638        7.3247779689
  C        20.2938311864       17.8971876043        4.5116453288
  C        46.7859848769       17.2328646861       13.8815649545
  C        45.4851950223       17.1304406355       13.1607533858
  C        45.2663095610       16.1301608056       12.2014060184
  C        44.0798032369       16.1042433532       11.4725195214
  C        43.0829358305       17.0761366794       11.6854018692
  C        43.2930975009       18.0478397895       12.6816578976
  C        44.4803150668       18.0795718234       13.4062097722
  C        41.8356374793       17.0969166594       10.8900372317
  C        41.8567319610       17.1014556254        9.4686611939
  C        43.0736772896       17.1936854554        8.7221605596
  C        46.1526642513       26.6368569225        8.7211412376
  C        46.1618868098       26.6555377825       11.5307821848
  C        14.0466244492       17.8315015116       13.7032107985
  C        15.3686005390       17.9047473594       13.0129906531
  C        15.6454143495       18.9208070120       12.0859409448
  C        16.8752289450       18.9566265564       11.4320186227
  C        17.8567761003       17.9752245515       11.6782066194
  C        17.5868128182       16.9881863768       12.6437172125
  C        16.3592642937       16.9521202717       13.3015689190
  C        19.1240920515       17.9480337010       10.9081120282
  C        19.0988007625       17.9270081733        9.4862552922
  C        17.8779987881       17.8222889518        8.7464833878
  C        28.8102235733       14.0843370492        2.3706034247
  C        28.2133083111       12.9102902795        3.0689616439
  C        28.9630658483       12.1495062852        3.9785502103
  C        28.3774123939       11.0715281815        4.6383481422
  C        27.0291604012       10.7298080580        4.4111659433
  C        26.2989141824       11.4729505160        3.4661961413
  C        26.8816611067       12.5512419330        2.8055980779
  C        26.3731398244        9.6431087868        5.1756268511
  C        26.3814672687        9.6571006520        6.5970699864
  C        26.9228861932       10.7503691714        7.3459638631
  C        32.1829950012       21.2312564744        2.1609448402
  C        32.7819418783       22.3839596156        2.8952562114
  C        32.0496642643       23.0326530510        3.9019291399
  C        32.6211512592       24.0767224776        4.6232966229
  C        33.9402006667       24.4975267002        4.3643217745
  C        34.6563644832       23.8599003293        3.3328578598
  C        34.0880806730       22.8125734981        2.6110241831
  C        34.5683948178       25.5761377301        5.1609547100
  C        34.5577404993       25.5474204978        6.5830297834
  C        34.0578315373       24.4276667459        7.3202844810
  C        25.7569310616        8.5855536617        7.3134632041
  C        25.7205383969        8.6027811436        4.5007245112
  C        32.0783208510       21.1982829826       13.8712167878
  C        32.6495379649       22.3585087556       13.1252340113
  C        31.9268745205       22.9897949693       12.1009401957
  C        32.5022258838       24.0307250137       11.3734215311
  C        33.8129878595       24.4697873292       11.6495638810
  C        34.5154564489       23.8504599618       12.7015493385
  C        33.9462839093       22.8063379688       13.4246046746
  C        34.4572455957       25.5544431832       10.8717836720
  C        34.4984789853       25.5379978678        9.4499951691
  C        34.0272642850       24.4245267308        8.6862368035
  C        40.6173273871       17.1014348887        8.7486956615
  C        40.6068445485       17.1299585595       11.5590738738
  C        28.7522349280       14.0581743768       13.8290417014
  C        28.1544285470       12.8948840199       13.1021585197
  C        28.9342921127       12.1197808887       12.2274325185
  C        28.3581776100       11.0690621397       11.5134884003
  C        26.9931387859       10.7575593514       11.6632966793
  C        26.2303120607       11.5136460760       12.5729580698
  C        26.8003301502       12.5707817270       13.2798004718
  C        26.3605705078        9.6636507014       10.8846674026
  C        26.3784622781        9.6664978490        9.4636677651
  C        26.9222700971       10.7550883779        8.7122183687
  C        18.1524540004        3.2020167708        2.3201001375
  C        17.4114886545        4.2908026337        3.0211056720
  C        16.3931482273        4.0024287243        3.9426379935
  C        15.7360047589        5.0356608938        4.6076153845
  C        16.0805808521        6.3823056678        4.3746448003
  C        17.0717628219        6.6620801466        3.4158448885
  C        17.7304497995        5.6317279030        2.7500999572
  C        15.4498000500        7.4847705405        5.1392508874
  C        15.4640065271        7.4821030418        6.5607979582
  C        16.1660355653        6.4880032041        7.3127950414
  C        42.9453573286       31.8594542668        2.0779465967
  C        43.6452575150       30.7719368031        2.8224020932
  C        44.5909822597       31.0930358109        3.8083733298
  C        45.1965476237       30.0873514243        4.5559574339
  C        44.8698887131       28.7343407336        4.3410670628
  C        43.9438181495       28.4202258418        3.3279979507
  C        43.3350730146       29.4254942010        2.5800911841
  C        45.4875734931       27.6549639986        5.1440920216
  C        45.4918487681       27.6805562995        6.5657805430
  C        44.8046260571       28.6884364142        7.3125093126
  C        14.8353593921        8.5542184456        7.2739430478
  C        14.8551170359        8.5572478707        4.4615915024
  C        42.9461176395       31.9612022651       13.8040336735
  C        43.6913055916       30.8849623256       13.0906593023
  C        44.6559754665       31.1907498921       12.1183811113
  C        45.2773742083       30.1711278706       11.4006141192
  C        44.9533881999       28.8208439838       11.6381689919
  C        44.0198119637       28.5232740506       12.6488917030
  C        43.3916599089       29.5400936113       13.3611057231
  C        45.5623838126       27.7234771154       10.8528327528
  C        45.5325636246       27.7168640815        9.4315380918
  C        44.8260007504       28.7070033454        8.6786958619
  C        35.1095005247       26.6300357507        8.7483485604
  C        35.0584314285       26.6173144803       11.5586367144
  C        18.1487683529        3.2469954409       13.7026958807
  C        17.4271425928        4.3423661906       12.9945098924
  C        16.4103108554        4.0485350534       12.0735194142
  C        15.7589535698        5.0774418397       11.3985947357
  C        16.1123113536        6.4233652529       11.6191255931
  C        17.1052306327        6.7092814166       12.5740534839
  C        17.7558039295        5.6820889612       13.2535896376
  C        15.4786076511        7.5173804359       10.8471814758
  C        15.4797546550        7.4991375392        9.4260591905
  C        16.1745134192        6.4968575260        8.6783555513
  H        10.6655725992       12.4626837800       11.9083950230
  H        11.6829059949       10.5436249256       10.6685368360
  H        15.3859077659       11.1630656671       12.7669892612
  H        14.3500305477       13.0696212161       14.0110144790
  H        13.3592919452       11.6229207368        9.2028290091
  H        50.3227504295       22.7483871242       11.9816288088
  H        49.3194382624       24.6227048394       10.6755870939
  H        45.6420301809       24.1607754333       12.8585670827
  H        46.6631802176       22.2900240453       14.1669366378
  H        47.6299420761       23.5758403204        9.2407914706
  H        14.8657920352        8.5835071755       12.6078840579
  H        50.2870647560       22.7035036582        4.0649202203
  H        49.2688674164       24.5763108115        5.3648082115
  H        45.6098501318       24.1085299236        3.1513890239
  H        46.6522235796       22.2532916564        1.8372195143
  H        47.6078299366       23.5519669803        6.8016578212
  H        40.6296667628       17.0674368302        3.4167472977
  H        48.6871387424       14.0950254413       15.7949923479
  H        10.6727277529       12.4711977727        4.0952485025
  H        11.6721158743       10.5269510115        5.3025742838
  H        15.3828073257       11.1490293161        3.2194610828
  H        14.3630888434       13.0799841071        2.0004663291
  H        13.3558349079       11.6143990015        6.7649235733
  H        47.9301444624       14.2184883637        1.7158946019
  H        47.7799362596       14.3735273745       14.4903584668
  H        49.0829390036       18.5520337086        2.8722116566
  H        10.4157929422       14.1343627000        0.0041088906
  H        24.4874909350        3.0201664094       11.9153673119
  H        25.6378348346        4.8739458788       10.6899530509
  H        23.2636498915        7.7512013301       12.8313275120
  H        22.1319455189        5.8876180815       14.0585792313
  H        23.8334213976        5.7879714970        9.2563725945
  H        36.3631158989       32.1918360885       11.9744433098
  H        35.2180220253       30.3725905974       10.7075105107
  H        37.4666650594       27.4386279109       12.9066018978
  H        38.5920419775       29.2708805832       14.1831112384
  H        36.9877716349       29.4561027915        9.2942989543
  H        25.7425349291        8.6058907076       12.6489705289
  H        36.4511482285       32.2386836288        4.1207218552
  H        35.3412124323       30.4238186105        5.4182474929
  H        37.5415361111       27.4856585218        3.1744984782
  H        38.6256628110       29.3120992227        1.8635506700
  H        37.0250288359       29.4723349372        6.8575974708
  H        46.1082143820       26.5874183146        3.3906417994
  H        44.6715150399       35.1157027522       15.8047089509
  H        24.4522292241        3.0327262947        4.0857357553
  H        25.5967499951        4.8651648775        5.3332366995
  H        23.1942948630        7.7663834792        3.2575636591
  H        22.0611407266        5.9218061587        2.0101388848
  H        23.8190046614        5.7900071496        6.8179490962
  H        44.9558962865       34.3897532296        1.6993639795
  H        44.9002558013       34.2057020985       14.4827353499
  H        40.6627353464       33.2121141859        2.8589417338
  H        23.1570608833        1.9547994488        0.0087377941
  H        25.8297927555       19.6284355752       11.8751009646
  H        23.6605035017       19.6695191339       10.6464368510
  H        22.3552227014       16.2115224841       12.8470532479
  H        24.5325568969       16.1826829231       14.0723520356
  H        23.7284485081       17.6508306848        9.2267090407
  H        35.1520190649       15.4627094585       11.9641894680
  H        37.2788456750       15.4144939771       10.6667959720
  H        38.6916192523       18.8253023512       12.8750756838
  H        36.5566750717       18.8546193294       14.1789867703
  H        37.2283237785       17.3954211707        9.2411316851
  H        20.3665335840       17.9647638486       12.6608446856
  H        35.1423371362       15.4582604969        4.1245161628
  H        37.2829249428       15.3834536576        5.4024280070
  H        38.7248538841       18.7685028381        3.1724416637
  H        36.5780093442       18.8246426369        1.8907854523
  H        37.2368046789       17.3797779448        6.7988051099
  H        35.1564881671       26.6758080376        3.4154923936
  H        28.5124231440       21.0844691091       15.9603141219
  H        25.7499666332       19.6334207369        4.1727465358
  H        23.5729743353       19.6836616174        5.3856284173
  H        22.2934171787       16.1884864561        3.2275306331
  H        24.4803018238       16.1528086091        2.0127722215
  H        23.7029130500       17.6469227092        6.7943133487
  H        28.9872311766       21.7238006118        1.7794420336
  H        29.1395294664       21.7507363749       14.6007978403
  H        32.1249264245       18.5964709991        2.9978249880
  H        27.4043823928       19.0776456199        0.0925046175
  H        14.8467100442       19.6492518853        4.1441604533
  H        17.0094085427       19.6970500386        5.3874885562
  H        18.3024612902       16.1903233050        3.2594102613
  H        16.1357698401       16.1583148427        2.0154500202
  H        16.9207730061       17.7033183857        6.8542031251
  H        46.0856799399       15.4287659442        4.0586434286
  H        43.9581864101       15.3601454329        5.3600973407
  H        42.5405476261       18.8008232618        3.2022497499
  H        44.6685037539       18.8440205447        1.8898372162
  H        44.0188464985       17.3041442910        6.8224461650
  H        20.2865130467       17.9287893621        3.4235778460
  H        46.0412964451       15.3867481576       12.0291759007
  H        43.9123335563       15.3268834194       10.7301875044
  H        42.5287711448       18.8031968118       12.8519514757
  H        44.6634181595       18.8479334340       14.1533077967
  H        44.0108039647       17.2970866432        9.2615185027
  H        46.1987891052       26.6820108167       12.6182274438
  H        52.7412879179       21.0627629154        0.1998215285
  H        14.8869645387       19.6766877342       11.8942667675
  H        17.0880741937       19.7480312217       10.7165266181
  H        18.3351105855       16.2236304714       12.8423056092
  H        16.1365882330       16.1768879751       14.0307146239
  H        16.9447977224       17.7152502691        9.2912114555
  H        52.3232086806       21.6734114181       14.2888139544
  H        52.0138722671       21.7026204177        1.5008516177
  H        49.0679730797       18.6079919611       13.1987903769
  H        13.2475813271       19.0163339300       15.9720136182
  H        30.0034960179       12.4138968260        4.1537906632
  H        28.9610931346       10.4808264280        5.3411323379
  H        25.2563889667       11.2194592840        3.2852701243
  H        26.3162105911       13.1450297278        2.0915470483
  H        27.3151894657       11.6085737462        6.8087634565
  H        31.0389674854       22.6956710907        4.1196677443
  H        32.0452194598       24.5790286052        5.3972224225
  H        35.6788999828       24.1710208617        3.1289067476
  H        34.6465011450       22.2976356679        1.8327128195
  H        33.7186737410       23.5510251232        6.7761759016
  H        25.7376093762        8.5934938431        3.4123029137
  H        30.9191000701       22.6443875455       11.8795406004
  H        31.9337061944       24.5203876623       10.5856992100
  H        35.5299713719       24.1758419936       12.9223007551
  H        34.4964413132       22.3079394092       14.2191604177
  H        33.6652306456       23.5457961197        9.2119485172
  H        40.6032260134       17.0991028518       12.6469792310
  H        32.5165825964       14.1499927394        0.2650974151
  H        29.9942191597       12.3479244772       12.1275936891
  H        28.9671238183       10.4712631804       10.8384507467
  H        25.1738217838       11.2828472711       12.6940282818
  H        26.2086850779       13.1723362172       13.9660440684
  H        27.3152868731       11.6159597238        9.2458659923
  H        33.3060801536       14.2098236832       14.4438309813
  H        33.4085496047       14.4003927565        1.6119544752
  H        32.1041907719       18.4894369517       13.1541068601
  H        30.2439553284       14.1923250843        0.0934540390
  H        16.1269475286        2.9634845496        4.1236398802
  H        14.9449937467        4.8084344261        5.3191091867
  H        17.3481012236        7.6975410923        3.2279208569
  H        18.5141622663        5.8423664545        2.0265446037
  H        16.7314695377        5.7305275061        6.7783286472
  H        44.8276894502       32.1400150832        3.9825302460
  H        45.9365696021       30.3409099017        5.3118128157
  H        43.6809076513       27.3782136246        3.1578586838
  H        42.5983320808       29.1902849513        1.8155047607
  H        44.2290389250       29.4360945429        6.7743020099
  H        14.8332098994        8.5422006907        3.3733177126
  H        44.8996676894       32.2333910887       11.9269400547
  H        46.0243351089       30.4122650280       10.6474033062
  H        43.7626436108       27.4835740221       12.8403472837
  H        42.6450280006       29.3173336330       14.1194245888
  H        44.2673591231       29.4697312057        9.2133694567
  H        35.0022282817       26.6351871519       12.6454494464
  H        36.6109355781       35.1392234557        0.1895004244
  H        16.1403001853        3.0083758015       11.9057149703
  H        14.9651311297        4.8487497937       10.6907822490
  H        17.3873564043        7.7453960930       12.7493373728
  H        18.5395720152        5.8943219153       13.9768729296
  H        16.7466718430        5.7465107189        9.2158411123
  H        36.2873540991       34.4817652371       14.2753940595
  H        36.4012208872       34.2049943633        1.5018131052
  H        40.5769911013       33.2013612677       13.1488852259
  H        17.5118594192        1.9543450663       15.9771802380
  H        28.7307537237       18.9780536397        4.2899102921
  H        28.9390542182       18.6164297885       11.7174647248
  H        32.1329790383       15.9521010544       11.6486826855
  H        30.8373779689       15.4690337034        4.3458300153
  H        28.3547957234       17.4613962957        6.9137958868
  H        29.5331318234       15.6390306756        6.8458852539
  H        31.4505335185       19.7293687592        9.5616436425
  H        32.8875452055       17.6173080342        9.4959422577
  H        26.7287530881       16.7018398154       10.3720863252
  H        18.9055750224        0.8520025255        4.3701539762
  H        40.5265878751       35.2299453448       11.9454608323
  H        42.3242235221       34.4188205491       11.5840679223
  H        22.0956845719        0.6994967214        4.3486927824
  H        11.5968698186       18.7129326879        4.3876048302
  H        52.2652114380       18.4312404296       11.6722685461
  H        49.2548387976       16.4770696998       11.5794598122
  H        10.1501284318       15.7984001759        4.2979473365
  H        50.8503106783       17.6925317029       11.9490972540
  H        10.0460121790       17.3947617966        4.0570731974
  H        20.2948628439        0.0049935568        4.0391814858
  H        39.1818300671       36.1245525282       11.6824993142
 Ni        30.9857200099       17.8041829132       10.9089724315
 Ni        31.2845568871       16.6920173036        7.9944015403
 Ni        30.0130728753       18.5961404538        8.0754848224
 Ni        30.0594113554       17.3911311214        5.2476598860
  O        10.6494243528       14.3655738105       13.4810344612
  O        12.6130862491       14.6575553839       14.5788058507
  O        49.1478662997       16.8459646831       15.9846999087
  O        50.3502836603       20.9357416225       13.6429248100
  O        48.3485764376       20.5932611191       14.6608562308
  O        11.0517133909       17.0538944614       14.4956356554
  O        50.3208497547       20.8817193612        2.4119802950
  O        48.3466936875       20.5867093536        1.3322254713
  O        49.5436380595       18.2484546618        2.0733470279
  O        12.3590759606       18.6246405579        0.0047547371
  O        48.6932181116       14.1486129807       14.7462262960
  O         8.2098729178       14.2104470030        1.3276383340
  O        10.7346100843       14.5073832567        2.6692270859
  O        12.5717778722       14.5823709578        1.3341106329
  O        22.8452640689        2.0424331739       13.4813745331
  O        21.6079384747        3.5932398119       14.5824601841
  O        42.0590484155       34.1369138178       15.9723882831
  O        37.9814395177       33.1376922091       13.5678944770
  O        39.2172305434       31.5754889401       14.6608857762
  O        20.3133435373        1.0411172502       14.4955038310
  O        38.0253689927       33.1858862729        2.4217014131
  O        39.2181207212       31.5831540801        1.3331211742
  O        40.6544267906       33.7691614133        2.0636358748
  O        18.2996395270        1.3863574337        0.0049895923
  O        44.6231537736       35.1001337926       14.7514015682
  O        24.2079662028       -0.0001646822        1.3251749412
  O        22.7550030692        2.0569089950        2.5901676053
  O        21.6320854867        3.5995361007        1.3518995135
  O        27.4975117492       18.7510399398       13.4870605769
  O        26.7639295877       16.9351805979       14.6478409521
  O        30.6525572912       19.3538508911        0.0699856166
  O        33.5503260141       16.3364034789       13.5867525811
  O        34.2760812239       18.1679956030       14.7307670591
  O        29.5749279901       17.0501296829       14.5797512759
  O        33.5526453831       16.3422459895        2.4274884868
  O        34.3002918948       18.2391021760        1.4131525990
  O        31.6539686752       18.3167636418        2.1727648818
  O        30.3251898448       15.1599379924        0.0902168739
  O        28.5525666183       21.0316848907       14.8946820604
  O        28.5156934415       20.9537679474        1.4189075889
  O        27.4587123437       18.6776924813        2.6660647001
  O        26.6932877633       16.9310805648        1.4189563455
  O        13.1482012689       18.6931530771        2.5923484322
  O        13.9192080426       16.9162986368        1.4101401227
  O        50.5960972457       19.3502128031        0.0254719626
  O        47.6826026222       16.3270403967        2.4223824334
  O        46.9504234863       18.1756676110        1.3305264619
  O        11.0696899848       17.0156662091        1.4946469892
  O        47.6755804482       16.3357841727       13.6478260790
  O        46.9266475338       18.2359746743       14.6590888051
  O        49.5686336839       18.3177209825       13.9772281578
  O        10.3186596924       15.1002392837        0.0022518702
  O        52.6707497334       21.0278697823        1.2469159852
  O        12.1468639990       20.8911065003       14.6681418426
  O        13.1090529850       18.6134847210       13.3202992198
  O        13.9575301120       16.9870715301       14.6601101709
  O        30.0035690169       14.4359423010        2.6734712779
  O        28.0802823752       14.6549305548        1.4935824891
  O        32.1428296966       16.8536060037        0.0814628704
  O        30.9644484590       20.9458885446        2.4182511535
  O        32.9432335924       20.6044076148        1.3413722692
  O        29.5648310238       17.0757723445        1.5807130109
  O        30.8521206848       20.8854333108       13.6543401194
  O        32.8705248111       20.5853459968       14.6620659519
  O        31.6808038740       18.2559811013       13.9993761842
  O        28.2882306117       18.6754007316        0.0811448234
  O        32.4928366011       14.2136106556        1.3352177331
  O        32.4074394550       14.2203784000       14.8135393273
  O        29.9192676144       14.4368443742       13.4882170205
  O        28.0374006896       14.5874736241       14.7482397557
  O        17.8993602610        1.9826341888        2.6585106510
  O        18.9828116662        3.5724319997        1.4229091733
  O        39.1694742179       34.1399846942        0.0052179975
  O        43.2804602424       33.0591792090        2.3365118805
  O        42.0343075385       31.5067169333        1.2466377264
  O        20.3312134808        1.0426844911        1.4861729087
  O        43.2760576762       33.1822279492       13.5696728536
  O        42.0049613100       31.5841842828       14.5780533631
  O        40.5790436881       33.7746652483       13.9305648157
  O        22.3706072502        1.3860265461        0.0021403292
  O        36.6774095538       35.1023359145        1.2407252318
  O        16.4510476701        0.0687141352       14.6644319781
  O        17.9372691257        2.0432361183       13.3222565757
  O        18.9203189818        3.5941277124       14.6609048550
  O        29.8129038363       18.6759341693       12.1484861967
  O        29.6866741669       18.9034055140        4.0873028037
  O        31.3334373604       16.3244416169       12.0666525244
  O        31.1831346927       16.3435006570        4.0754023544
  O        32.1491131588       16.9963929211        9.6350737546
  O        27.4609172054       16.7854153369        9.7411969113
  O        30.3810651595       15.9832609736        6.5075867948
  O        32.7463941623       19.0474642524        4.7440727007
  O        30.6356188600       19.2046622221        9.6706061363
  O        28.9369017462       18.1764408941        6.5873558380
  O        39.4566365086       35.2439860471       11.9968444066
  O        19.2013490658        0.0049162712        3.9925080727
  O        41.9699041952       35.1723801091       12.0812395202
  O        21.7004271746       -0.0691078750        3.9037631956
  O        51.3653518420       18.6142833587       12.0003872804
  O        10.7510783100       18.7471653303        3.9100337845
  O        50.0792847090       16.4128357463       12.0866857908
  O         9.5243002054       16.4832405761        3.9963263759
 Zr         9.2970656331       16.0528527625       14.1773656371
 Zr        49.8365932811       16.0068625846        1.7516700641
 Zr        22.0727398360        0.0297317727       14.1812001601
 Zr        42.4657090156       35.1515859612        1.7968273470
 Zr        29.5995009512       19.0868538343       14.2680428382
 Zr        29.5946596192       19.1733762712        1.8641036260
 Zr        11.0381344267       19.0520969709        1.8329068055
 Zr        11.0442827075       19.1547777019       14.2459255882
 Zr        31.3499452803       16.1209796467        1.8733738978
 Zr        31.3876462697       16.0271118819       14.2857344581
 Zr        18.6147843501        0.0057618696        1.7805011571
 Zr        18.5123445379       -0.0065897681       14.2108543441
 Zr        12.3024890712       16.3236148536       15.9852455478
 Zr        48.6166114993       18.8330715807        0.0156028166
 Zr        20.3249059045        2.4811872849       15.9862469388
 Zr        40.6399544369       32.6865069314       15.9732491702
 Zr        28.3463064466       16.3435664595        0.0871726193
 Zr        32.6291876835       18.8398692482        0.0633079509
  H        32.5749291619       19.9825919525        4.9552210258
  O        29.3978900820       14.8824109664       10.4873662955
  H        30.0153383833       15.2952881160       11.1401173847
  H        29.0397856234       14.1091925766       10.9564060489
  O        33.0807681847       15.9766358249        6.7434890939
  H        33.6646443386       16.7382482829        6.5778891485
  H        32.5691247355       15.9061813356        5.9071726755
  O        27.5017160090       20.3718668506        7.7403243360
  H        27.7675347839       19.5923734167        7.2063161940
  H        27.4366051312       20.0141729924        8.6421917935
  O        30.4124500253       20.7355840500        6.4128520416
  H        30.1473418766       20.2244620016        5.6135658793
  H        29.5667493784       21.0575835739        6.7798882293
  H        28.1262974109       16.1115966273       10.0375893929
  H        32.0155308138       18.5741118816        5.2036802939
