     584
 i =      224, E =     -4846.6812944017
  C        11.8587456243       14.0535077540       13.7364370864
  C        12.4562516285       12.8905716868       13.0181441362
  C        11.7045307104       12.1716189865       12.0765234285
  C        12.2808925713       11.1093853700       11.3842022856
  C        13.6214874661       10.7396413985       11.6119003079
  C        14.3546783460       11.4432313990       12.5853371980
  C        13.7818074469       12.5082350250       13.2768160384
  C        14.2610336258        9.6489780391       10.8385149531
  C        14.2563722331        9.6568996085        9.4168167605
  C        13.7431627751       10.7590051817        8.6629132548
  C        49.1268560892       21.2332527196       13.8745469965
  C        48.5501323163       22.4011838802       13.1474623495
  C        49.3001766978       23.0685463874       12.1665058777
  C        48.7332119585       24.1076707327       11.4333108316
  C        47.4026638170       24.5092937940       11.6619358437
  C        46.6717000273       23.8603471074       12.6753943288
  C        47.2341684805       22.8154598390       13.4047488549
  C        46.7724058267       25.5869722923       10.8646554363
  C        46.7613630913       25.5573379400        9.4428982010
  C        47.2613460470       24.4422680007        8.6994037076
  C        14.8603569466        8.5705876768        8.7035514759
  C        14.8918066435        8.5970285457       11.5151666488
  C        49.1132621722       21.2035254861        2.1504482754
  C        48.5279276373       22.3648774576        2.8776142385
  C        49.2671517134       23.0256252128        3.8705104587
  C        48.6908042250       24.0601540962        4.6019920764
  C        47.3603868318       24.4569107157        4.3637429329
  C        46.6399765496       23.8119972078        3.3402214729
  C        47.2135572481       22.7761194933        2.6084302476
  C        46.7219076787       25.5318454560        5.1547798462
  C        46.7336227514       25.5281767592        6.5764795759
  C        47.2490704041       24.4289621580        7.3328522652
  C        40.6347904424       17.1597812411        7.3276277283
  C        40.6525998622       17.1796692690        4.5185615535
  C        11.8829515532       14.0865370484        2.2906043684
  C        12.4722921177       12.9107385939        2.9948340707
  C        11.7147823246       12.1774959197        3.9209169388
  C        12.2813580185       11.0950275114        4.5893275491
  C        13.6201973180       10.7213456959        4.3575414887
  C        14.3581828191       11.4369305436        3.3967586625
  C        13.7927434320       12.5180996677        2.7240772317
  C        14.2538423966        9.6246134884        5.1279512230
  C        14.2525664332        9.6445808790        6.5497902726
  C        13.7426162975       10.7534913781        7.2968678533
  C        22.5125777211        3.2445099825       13.7470332876
  C        23.2291761564        4.3482463683       13.0458202757
  C        24.2245456792        4.0643988216       12.0988941888
  C        24.8552402897        5.1010758517       11.4156887450
  C        24.5067740629        6.4445590559       11.6588750617
  C        23.5390030144        6.7199093701       12.6422880847
  C        22.9035818693        5.6849216169       13.3239681770
  C        25.1178886798        7.5484811410       10.8827580745
  C        25.0910660828        7.5420206059        9.4610175066
  C        24.3853407161        6.5458530541        8.7140522414
  C        38.3039118970       31.9291621913       13.8431707653
  C        37.5781831443       30.8380971079       13.1321487737
  C        36.6222130941       31.1386313824       12.1499423282
  C        36.0100080738       30.1158548842       11.4307280418
  C        36.3387705978       28.7676545485       11.6727660154
  C        37.2649063915       28.4746852566       12.6914483445
  C        37.8815298938       29.4960522929       13.4090586073
  C        35.7410968975       27.6730795142       10.8759543873
  C        35.7755811427       27.6854275739        9.4547440601
  C        36.4806474943       28.6879275838        8.7168529499
  C        25.7183466027        8.6099285084        8.7414694438
  C        25.7192371725        8.6211925019       11.5534464892
  C        38.3287049980       31.9616689546        2.1608423836
  C        37.6082703127       30.8865880668        2.9011339868
  C        36.6819929002       31.1915638700        3.9101014679
  C        36.0755377804       30.1702362231        4.6388544405
  C        36.3810803991       28.8186670095        4.3818822243
  C        37.2839257811       28.5237217255        3.3420805373
  C        37.8926222590       29.5414429625        2.6148086532
  C        35.7787498367       27.7166463556        5.1662879154
  C        35.7948062748       27.7077088290        6.5881704632
  C        36.4895145296       28.6988433349        7.3503207595
  C        46.1356294475       26.6208191265        7.2866126829
  C        46.0879565433       26.5802001152        4.4787121429
  C        22.4623734707        3.2561573883        2.2622735887
  C        23.1599980289        4.3644002471        2.9832587853
  C        24.1655951270        4.0769304163        3.9199882564
  C        24.7974668984        5.1059764767        4.6141838893
  C        24.4440362362        6.4524545986        4.3945755810
  C        23.4614883902        6.7332893180        3.4262621515
  C        22.8250951696        5.7044201934        2.7323854156
  C        25.0782139939        7.5490042205        5.1688484721
  C        25.0715503665        7.5416313867        6.5916763411
  C        24.3745806620        6.5464975955        7.3473814334
  C        26.6219817629       17.8611377749       13.7771486903
  C        25.3132273701       17.9083251002       13.0534212435
  C        25.0546340396       18.9050567277       12.0990466867
  C        23.8420151513       18.9260053860       11.4120722637
  C        22.8508887323       17.9535387368       11.6582843212
  C        23.1058299919       16.9801059849       12.6424236448
  C        24.3206490654       16.9537135759       13.3263672033
  C        21.5774346410       17.9385510278       10.8941803060
  C        21.5771633259       17.9122996811        9.4718588203
  C        22.7824673007       17.7848805721        8.7114618302
  C        34.4238310796       17.2257154080       13.8798941732
  C        35.7203875296       17.1704403286       13.1455654588
  C        35.9206739685       16.2175503575       12.1348994872
  C        37.1078479569       16.2035518619       11.4090486874
  C        38.1239292436       17.1424427241       11.6724031815
  C        37.9265085998       18.0740752158       12.7092360038
  C        36.7378035954       18.0923273015       13.4342710787
  C        39.3796789586       17.1542600448       10.8903207665
  C        39.3764723167       17.1804107433        9.4690433562
  C        38.1707400983       17.3180458176        8.7113380565
  C        20.3305301658       17.9284950938        8.7634225586
  C        20.3526653190       17.9432922006       11.5766121574
  C        34.4719736641       17.2486284618        2.1884605067
  C        35.7731552886       17.1788146856        2.9161044153
  C        35.9890524161       16.1991970011        3.8972145030
  C        37.1751946130       16.1870425606        4.6261137080
  C        38.1738158156       17.1523039076        4.3909638685
  C        37.9637909897       18.1065818013        3.3787141016
  C        36.7751020807       18.1249161575        2.6542278536
  C        39.4220875998       17.1736865166        5.1837902416
  C        39.3985222155       17.1899707240        6.6041573758
  C        38.1814911988       17.3196672933        7.3448846843
  C        35.1684677905       26.6267133549        7.2929537932
  C        35.1870235311       26.6464100411        4.4838815866
  C        26.5688019804       17.8201169643        2.3325796778
  C        25.2560041212       17.8661645814        3.0407590250
  C        24.9890044035       18.8734726759        3.9800135370
  C        23.7708888224       18.8982581130        4.6529871408
  C        22.7906339558       17.9156018283        4.4096738255
  C        23.0516645531       16.9329786938        3.4376783154
  C        24.2707586486       16.9060469695        2.7634107713
  C        21.5269684597       17.8971765084        5.1822480570
  C        21.5514287053       17.8892000362        6.6036053393
  C        22.7702842319       17.7733655767        7.3452239011
  C        14.0463069047       17.8282616384        2.2943408364
  C        15.3502419456       17.8836715830        3.0206178056
  C        15.6073372221       18.8857558235        3.9692556673
  C        16.8160605242       18.9048245262        4.6626553760
  C        17.8019042590       17.9246759738        4.4294405920
  C        17.5495282914       16.9467534402        3.4487976747
  C        16.3402659172       16.9230806455        2.7570425911
  C        19.0710338139       17.9064083855        5.1982167940
  C        19.0700966199       17.9042683945        6.6206731103
  C        17.8632511910       17.8062442948        7.3823041894
  C        46.8063451291       17.2201261439        2.1646989568
  C        45.5180003155       17.1637955325        2.9124407691
  C        45.3110996354       16.1913520319        3.9028269630
  C        44.1306827472       16.1809751842        4.6410113573
  C        43.1284253286       17.1431812948        4.4097443431
  C        43.3325870482       18.0951384907        3.3928506447
  C        44.5136172657       18.1095502605        2.6560442004
  C        41.8761019765       17.1626394718        5.1982142704
  C        41.8818003563       17.1657254131        6.6198853179
  C        43.0906607432       17.2556109767        7.3794292542
  C        20.3170098162       17.9159030764        7.3286953529
  C        20.2950160473       17.8859471554        4.5156738674
  C        46.7859139426       17.2311457264       13.8852492985
  C        45.4820884664       17.1271847648       13.1719451634
  C        45.2625098798       16.1334123924       12.2063203495
  C        44.0743499886       16.1121532337       11.4803512891
  C        43.0774808956       17.0813996888       11.7040618047
  C        43.2865243952       18.0433413651       12.7096727710
  C        44.4758501472       18.0713399899       13.4302307069
  C        41.8328574701       17.1131673626       10.9060773755
  C        41.8597999050       17.1389407580        9.4855743604
  C        43.0801750344       17.2402442422        8.7459287105
  C        46.1533835041       26.6372392513        8.7211566437
  C        46.1624055253       26.6560551969       11.5308005806
  C        14.0456746071       17.8320569417       13.7038890336
  C        15.3669905258       17.9073072756       13.0139131103
  C        15.6396149312       18.9223148530       12.0846464421
  C        16.8687270984       18.9603201999       11.4300187761
  C        17.8528730515       17.9825539265       11.6790295579
  C        17.5872838450       16.9968592871       12.6469198393
  C        16.3601186036       16.9582313122       13.3049069837
  C        19.1200632157       17.9576456243       10.9098492273
  C        19.0955733049       17.9295992067        9.4884626887
  C        17.8756816542       17.8176193860        8.7482658106
  C        28.8083025958       14.0859894710        2.3674101009
  C        28.2022584841       12.9161083940        3.0677436923
  C        28.9347121015       12.1705044136        4.0034299848
  C        28.3390300061       11.0969230391        4.6620622722
  C        26.9986629926       10.7432191095        4.4060687601
  C        26.2874036330       11.4705143401        3.4348646442
  C        26.8794843817       12.5456020259        2.7772360525
  C        26.3338405259        9.6601792095        5.1676000285
  C        26.3248655814        9.6832889874        6.5884762687
  C        26.8340218596       10.7932731641        7.3346267939
  C        32.1791816881       21.2343152417        2.1516792335
  C        32.7764835485       22.3979476450        2.8719090451
  C        32.0361120108       23.0716887194        3.8550289340
  C        32.6114758609       24.1094412792        4.5816053625
  C        33.9435189879       24.5008832757        4.3459750344
  C        34.6666335586       23.8454821791        3.3316617658
  C        34.0933992379       22.8025544512        2.6069028233
  C        34.5772212887       25.5744121238        5.1445128522
  C        34.5762973345       25.5426343629        6.5659837640
  C        34.0724148514       24.4253912325        7.3044408321
  C        25.7125384793        8.6064255801        7.3068047121
  C        25.6945581850        8.6112781474        4.4935257296
  C        32.1056889820       21.2287381585       13.8788220075
  C        32.7017996491       22.3754778933       13.1319392653
  C        31.9757137348       23.0267347760       12.1228578735
  C        32.5614309764       24.0529459878       11.3853116710
  C        33.8867809652       24.4577308567       11.6383503784
  C        34.5958907475       23.8187866478       12.6735611121
  C        34.0151807475       22.7869278144       13.4063454207
  C        34.5307142364       25.5365115120       10.8541275280
  C        34.5517379771       25.5237830868        9.4323327674
  C        34.0598844123       24.4170584365        8.6710249228
  C        40.6231376093       17.1504400859        8.7614493965
  C        40.6021496191       17.1373776211       11.5708015541
  C        28.7439286262       14.0661348073       13.8147029673
  C        28.1399592791       12.9164540712       13.0752183774
  C        28.8851230385       12.2166246172       12.1128770354
  C        28.3089443532       11.1594532755       11.4113070542
  C        26.9734949418       10.7745727167       11.6492514961
  C        26.2470767872       11.4617117479       12.6394339541
  C        26.8206973696       12.5201860276       13.3415029082
  C        26.3347061694        9.6821252784       10.8762531372
  C        26.3261925894        9.6949231548        9.4546895897
  C        26.8320730696       10.7998961167        8.7003074857
  C        18.1354427376        3.1809935202        2.3222028035
  C        17.4060906676        4.2782425265        3.0207814350
  C        16.3904192975        3.9998722774        3.9483474305
  C        15.7426990014        5.0398473754        4.6118636843
  C        16.0945989756        6.3835734951        4.3721893810
  C        17.0838481712        6.6531033938        3.4082876155
  C        17.7329335592        5.6157709619        2.7432107356
  C        15.4702877156        7.4912788072        5.1352392770
  C        15.4855771349        7.4905938430        6.5569542338
  C        16.1871303243        6.4969753834        7.3101262712
  C        42.9459422814       31.8595497966        2.0780310670
  C        43.6462981630       30.7719124012        2.8220263619
  C        44.5920015656       31.0932267457        3.8079331152
  C        45.1977022579       30.0876719782        4.5555927630
  C        44.8711584616       28.7346217853        4.3408289294
  C        43.9451908834       28.4202930239        3.3277446931
  C        43.3363771633       29.4254345417        2.5797067613
  C        45.4887569282       27.6553167866        5.1440012985
  C        45.4929123917       27.6809365765        6.5656919787
  C        44.8058904138       28.6890312052        7.3123082406
  C        14.8565859012        8.5630680728        7.2693266101
  C        14.8749851684        8.5630431751        4.4566547259
  C        42.9464701771       31.9615182891       13.8038515294
  C        43.6916792494       30.8854041391       13.0903603562
  C        44.6564275070       31.1913190575       12.1182158983
  C        45.2779693403       30.1717380741       11.4005001594
  C        44.9540473744       28.8214299269       11.6379870459
  C        44.0203787513       28.5237531795       12.6485876787
  C        43.3921000174       29.5405094092       13.3607591473
  C        45.5631055991       27.7240420752       10.8527381245
  C        45.5334097679       27.7173910818        9.4314436905
  C        44.8271355170       28.7076555665        8.6784925187
  C        35.1573032793       26.6162070875        8.7276018839
  C        35.1366079374       26.5979585417       11.5370543734
  C        18.1486771390        3.2469756246       13.7015306987
  C        17.4300478536        4.3438356944       12.9923003540
  C        16.4148565304        4.0525638783       12.0687087359
  C        15.7665373741        5.0831857269       11.3933112499
  C        16.1211729446        6.4284270664       11.6160344323
  C        17.1125613635        6.7118037077       12.5732848361
  C        17.7602569809        5.6829056239       13.2530567201
  C        15.4906972732        7.5241307500       10.8435754408
  C        15.4966016843        7.5074980130        9.4224386046
  C        16.1933453996        6.5057857260        8.6757334210
  H        10.6723740819       12.4656883607       11.8995562091
  H        11.6945811731       10.5508506078       10.6577198885
  H        15.3917268105       11.1686719717       12.7670269585
  H        14.3512879654       13.0715215466       14.0121892646
  H        13.3760416611       11.6310783754        9.1962323933
  H        50.3229064034       22.7485596583       11.9817944694
  H        49.3197061466       24.6229951718       10.6757801906
  H        45.6421959432       24.1610919636       12.8585451740
  H        46.6631432794       22.2901897717       14.1668098260
  H        47.6298665169       23.5758792462        9.2410809972
  H        14.8721267397        8.5882633471       12.6034736663
  H        50.2872152742       22.7028109453        4.0653920690
  H        49.2691963747       24.5756315164        5.3654810291
  H        45.6105768775       24.1092480589        3.1511518192
  H        46.6527482582       22.2539711654        1.8368523110
  H        47.6078436354       23.5518484965        6.8019431561
  H        40.6584656324       17.1420839356        3.4309211146
  H        48.6869950609       14.0948978963       15.7948864071
  H        10.6812693785       12.4664707778        4.0982406687
  H        11.6895342840       10.5245587651        5.3019400370
  H        15.3936291484       11.1590821068        3.2108473728
  H        14.3650916667       13.0874986254        1.9955757891
  H        13.3757249904       11.6220718920        6.7582207330
  H        47.9302691754       14.2177501829        1.7161770515
  H        47.7799995146       14.3730386201       14.4899458343
  H        49.0842222359       18.5527299684        2.8726301674
  H        10.4160585414       14.1342775022        0.0037997130
  H        24.4820195855        3.0248081442       11.9088177017
  H        25.6274304428        4.8798082217       10.6820629817
  H        23.2619439915        7.7539444018       12.8368354966
  H        22.1346268275        5.8890256901       14.0651041867
  H        23.8213803319        5.7907406028        9.2538665200
  H        36.3839976822       32.1810988352       11.9522462526
  H        35.2683320868       30.3520801228       10.6708736177
  H        37.5261412354       27.4363878255       12.8851653885
  H        38.6225567838       29.2780275239       14.1744143415
  H        37.0453769211       29.4383195593        9.2624442334
  H        25.7532726646        8.6044160813       12.6413066835
  H        36.4585708227       32.2349598741        4.1209712981
  H        35.3522018376       30.4120963612        5.4144249500
  H        37.5312324001       27.4843216408        3.1366043207
  H        38.6127749093       29.3187941032        1.8312928484
  H        37.0619943862       29.4572652002        6.8241183255
  H        46.1093560743       26.5876102348        3.3906758343
  H        44.6682927303       35.1161425475       15.8088157091
  H        24.4428044025        3.0383187678        4.0856869903
  H        25.5806066668        4.8756133508        5.3333729306
  H        23.1767413845        7.7681568926        3.2474203970
  H        22.0508351343        5.9188407252        1.9993192951
  H        23.8018343346        5.7923645162        6.8154232805
  H        44.9538935619       34.3904848514        1.7003152456
  H        44.9018890875       34.2068879864       14.4854490107
  H        40.6658111415       33.2090243370        2.8582064312
  H        23.1507063920        1.9577237316        0.0100834725
  H        25.8171285240       19.6594705627       11.9166922590
  H        23.6450545741       19.7058903747       10.6793476569
  H        22.3524173254       16.2207046195       12.8418258561
  H        24.5282310686       16.1884325349       14.0707331582
  H        23.7223174170       17.6644579008        9.2423595584
  H        35.1313199788       15.4999530294       11.9243072476
  H        37.2633739746       15.4564264416       10.6339161937
  H        38.7039439298       18.8065465088       12.9164330426
  H        36.5672280134       18.8256229569       14.2191064260
  H        37.2330966294       17.4510872820        9.2434651187
  H        20.3595981686       17.9867339783       12.6643454715
  H        35.2107163285       15.4615573991        4.0806197292
  H        37.3444319463       15.4237630508        5.3826820430
  H        38.7292917416       18.8572941812        3.1934713665
  H        36.5899610840       18.8785172071        1.8924093342
  H        37.2525574874       17.4541599632        6.7982784693
  H        35.1533138396       26.6747894848        3.3964104355
  H        28.5038708742       21.0679686907       15.9551376748
  H        25.7475746306       19.6305597429        4.1641543245
  H        23.5629034975       19.6836416994        5.3764531422
  H        22.3026837316       16.1677375682        3.2443647841
  H        24.4892124668       16.1360302067        2.0273353185
  H        23.7010359293       17.6445859318        6.8005780464
  H        29.0219010405       21.7105773716        1.7526083433
  H        29.1781217131       21.7293169485       14.6238515190
  H        32.1176952673       18.5547182745        2.9807318947
  H        27.3760625940       19.0256697836        0.0856118626
  H        14.8494985540       19.6453154365        4.1478443447
  H        17.0117366503       19.6882259234        5.3917116758
  H        18.3002083640       16.1821030411        3.2597185100
  H        16.1338681978       16.1548392580        2.0156460211
  H        16.9207155872       17.6895012644        6.8553375335
  H        46.0921662990       15.4574405461        4.0869932899
  H        43.9696770736       15.4192587074        5.4006924353
  H        42.5662545245       18.8457221884        3.2108174442
  H        44.6887881895       18.8586927408        1.8875288087
  H        44.0330129651       17.3674410657        6.8508200593
  H        20.2889100837       17.9154007253        3.4275350830
  H        46.0387366677       15.3933070162       12.0256649801
  H        43.9060290976       15.3421075414       10.7306375265
  H        42.5207274177       18.7951735919       12.8886182344
  H        44.6603006367       18.8335320603       14.1832174663
  H        44.0146131021       17.3390503348        9.2907457356
  H        46.1992438985       26.6825926199       12.6182469501
  H        52.7412007787       21.0626602610        0.1998050375
  H        14.8783271146       19.6750191339       11.8918988154
  H        17.0790912966       19.7501600066       10.7120895829
  H        18.3386285375       16.2357008365       12.8469772905
  H        16.1396011157       16.1841291690       14.0358873438
  H        16.9424649262       17.7095501635        9.2927924870
  H        52.3225286753       21.6733335636       14.2891908411
  H        52.0133220234       21.7021087742        1.5008177995
  H        49.0675510850       18.6078327083       13.1990450742
  H        13.2477155213       19.0163006733       15.9723763269
  H        29.9698428636       12.4426740153        4.1987067251
  H        28.9090688033       10.5176853668        5.3853612904
  H        25.2514714829       11.2077822121        3.2305607399
  H        26.3284872069       13.1281093543        2.0429225801
  H        27.2002424372       11.6604660100        6.7934520413
  H        31.0132499319       22.7560394615        4.0444064894
  H        32.0326306878       24.6312411225        5.3404751985
  H        35.6976114515       24.1386717214        3.1443601134
  H        34.6567242865       22.2707507823        1.8435622247
  H        33.7168868100       23.5559211454        6.7587750982
  H        25.7218410831        8.5943189110        3.4054029575
  H        30.9552171184       22.7094478651       11.9213116695
  H        31.9911415657       24.5590626393       10.6094563621
  H        35.6221117551       24.1196466173       12.8741663704
  H        34.5678200880       22.2710280655       14.1881332285
  H        33.6952753216       23.5409988366        9.1997954576
  H        40.5942042538       17.0889124780       12.6580163600
  H        32.5186702915       14.1526720289        0.2510410125
  H        29.9197102126       12.5090436515       11.9412574448
  H        28.8943579486       10.6104729200       10.6766011866
  H        25.2143250272       11.1767240324       12.8297283108
  H        26.2569548170       13.0664321278       14.0941869781
  H        27.1950427661       11.6725937033        9.2350826470
  H        33.2949018997       14.1810531486       14.4254251150
  H        33.4107497087       14.4000761952        1.6076599578
  H        32.1017168340       18.5593113245       13.1731025234
  H        30.2277411826       14.1941607579        0.0766862662
  H        16.1183858387        2.9633635520        4.1347689066
  H        14.9532887608        4.8204377601        5.3275598352
  H        17.3662172075        7.6859882675        3.2151311423
  H        18.5148821955        5.8184355583        2.0152715181
  H        16.7536655106        5.7396161040        6.7766307424
  H        44.8283937897       32.1402986603        3.9820298508
  H        45.9376984713       30.3414129454        5.3114145544
  H        43.6824104090       27.3782325439        3.1577106096
  H        42.5996468936       29.1901019750        1.8151516209
  H        44.2305947621       29.4368449622        6.7740056286
  H        14.8512194359        8.5462808221        3.3684346126
  H        44.9001131861       32.2339936554       11.9269094756
  H        46.0250195248       30.4129693438       10.6474070614
  H        43.7633101945       27.4840284256       12.8400288725
  H        42.6454883860       29.3177132387       14.1190931237
  H        44.2686882937       29.4705750452        9.2130937084
  H        35.0899151628       26.6134242583       12.6243100521
  H        36.6051109354       35.1339816282        0.1858310410
  H        16.1437382108        3.0129913239       11.8990157329
  H        14.9741810110        4.8563350888       10.6832623880
  H        17.3960343267        7.7472777793       12.7501947882
  H        18.5431338313        5.8933617303       13.9778174880
  H        16.7647595416        5.7555367139        9.2141823512
  H        36.2784815771       34.4825762959       14.2679865780
  H        36.3808188003       34.2092488584        1.5049803204
  H        40.5804343404       33.2027015069       13.1483713972
  H        17.4710240827        1.9476443534       15.9690271449
  H        28.7451496281       18.9671821737        4.3167073604
  H        29.9100617609       19.8121682710       11.5863659837
  H        32.2754162046       16.2559577102       11.7003732224
  H        31.0484995272       15.4457008480        4.3632084061
  H        28.3854064024       17.2643044822        6.8450174797
  H        29.4331607514       15.0416913599        6.3035487535
  H        31.6199045561       20.1080677040        9.3675166958
  H        32.8369061062       17.8057749746        9.2430466763
  H        28.8692366885       16.8116646265        9.3815648097
  H        18.8533126070        0.8689569574        4.3403317678
  H        40.5278615977       35.2290488722       11.9469277488
  H        42.3241840205       34.4190036078       11.5853081421
  H        22.0877769129        0.6916387723        4.3570020469
  H        11.5968448825       18.7130790959        4.3877078895
  H        52.2648514310       18.4310542446       11.6720650500
  H        49.2552054877       16.4768543821       11.5793125063
  H        10.1501703065       15.7980892279        4.2978683630
  H        50.8499817699       17.6924246533       11.9491641138
  H        10.0461311222       17.3944036219        4.0570886992
  H        20.2145932193        0.0021450078        4.0471151368
  H        39.1835466629       36.1244479470       11.6813974453
 Ni        30.8557292309       17.8766372577       10.6615516807
 Ni        31.1601618177       16.2721873044        8.1619751282
 Ni        29.8903484822       18.9576279951        7.8290734827
 Ni        29.9666755855       17.2637512038        5.1665801624
  O        10.6499638957       14.3651255552       13.4807328279
  O        12.6131774479       14.6575329531       14.5787760945
  O        49.1481210270       16.8458883766       15.9846588601
  O        50.3502933050       20.9358237529       13.6429625048
  O        48.3485877790       20.5933704751       14.6608035951
  O        11.0517220079       17.0538571597       14.4955657392
  O        50.3210624444       20.8816720812        2.4119197462
  O        48.3468051230       20.5867803517        1.3322611873
  O        49.5438010454       18.2484354987        2.0733892295
  O        12.3591951955       18.6246637398        0.0047847783
  O        48.6932903891       14.1485527208       14.7461906297
  O         8.2098889002       14.2103752052        1.3276494138
  O        10.7353541017       14.5067903782        2.6694241671
  O        12.5718265578       14.5827953935        1.3336031421
  O        22.8446280412        2.0429951726       13.4819152024
  O        21.6063977289        3.5928578997       14.5837010152
  O        42.0582338746       34.1374628093       15.9739224340
  O        37.9818447944       33.1372566748       13.5672185039
  O        39.2185731785       31.5763251566       14.6619287748
  O        20.3084691883        1.0397124191       14.4970373583
  O        38.0244107268       33.1852293008        2.4204201388
  O        39.2195047980       31.5840128651        1.3311839219
  O        40.6522773411       33.7693870669        2.0653588416
  O        18.2557453450        1.3765230635        0.0018946571
  O        44.6222211719       35.1005737375       14.7536451425
  O        24.2053615538        0.0000444078        1.3259136525
  O        22.7532256394        2.0579855160        2.5890589257
  O        21.6248616479        3.5965343079        1.3484040578
  O        27.4958622834       18.7509230944       13.4892338299
  O        26.7631183907       16.9307554518       14.6452990930
  O        30.6391274410       19.3532255124        0.0625511394
  O        33.5483555071       16.3391021779       13.5805301947
  O        34.2750498823       18.1681620565       14.7301339900
  O        29.5768311717       17.0604870912       14.5564962429
  O        33.6138768553       16.3303253708        2.4204281523
  O        34.3037666648       18.2466057733        1.4102794178
  O        31.6507503904       18.3128643308        2.1645847673
  O        30.3240381916       15.1604838572        0.0803895524
  O        28.5556673641       21.0283293031       14.8902260772
  O        28.5132442413       20.9528556090        1.4169428436
  O        27.4567441702       18.6769098826        2.6656579986
  O        26.6924614372       16.9275906377        1.4205251962
  O        13.1488481364       18.6928627374        2.5926365000
  O        13.9192912156       16.9161581395        1.4100559165
  O        50.5964125398       19.3503056389        0.0255890271
  O        47.6833640294       16.3270937356        2.4224747560
  O        46.9524096789       18.1760415343        1.3292469091
  O        11.0698044084       17.0155283230        1.4947419059
  O        47.6758598735       16.3354787692       13.6479475010
  O        46.9283229744       18.2358653726       14.6601877232
  O        49.5688142271       18.3177041756       13.9771460436
  O        10.3186474099       15.1001277033        0.0021775021
  O        52.6707756746       21.0278717798        1.2469348183
  O        12.1468602228       20.8911984281       14.6681151216
  O        13.1081478443       18.6136633964       13.3205394651
  O        13.9573561173       16.9871062575       14.6602465265
  O        30.0006754823       14.4322969762        2.6694628108
  O        28.0779364011       14.6568219655        1.4901397763
  O        32.1399771240       16.8527667259        0.0707752451
  O        30.9628673410       20.9456473809        2.4177354915
  O        32.9430175786       20.6004178406        1.3418015546
  O        29.5661591487       17.0723499887        1.5793911474
  O        30.8745315998       20.9513958085       13.6601181738
  O        32.8776101014       20.5844464438       14.6629644083
  O        31.6819164758       18.2523176625       13.9921333667
  O        28.2640057535       18.6335865547        0.0796151911
  O        32.4949857961       14.2120957403        1.3305569061
  O        32.4061449484       14.2203292651       14.8160956219
  O        29.9145363345       14.4379961038       13.4815706839
  O        28.0371119035       14.5875372994       14.7460021358
  O        17.8892746415        1.9666562263        2.6678872620
  O        18.9563195284        3.5271795296        1.4130695919
  O        39.1686008847       34.1388772585        0.0023268581
  O        43.2802491602       33.0590048929        2.3368007002
  O        42.0345996273       31.5064524085        1.2467487638
  O        20.3177193210        1.0368240811        1.4851483265
  O        43.2760047685       33.1825305014       13.5698064145
  O        42.0052916147       31.5840864116       14.5778812555
  O        40.5790141244       33.7750094887       13.9307601405
  O        22.3673638154        1.3847895165        0.0030448173
  O        36.6727943985       35.0997978112        1.2384361671
  O        16.4456181225        0.0642666311       14.6631669311
  O        17.9364816269        2.0434120744       13.3212623225
  O        18.9191960866        3.5931835424       14.6608191863
  O        29.9073189318       18.9684602377       12.0770608526
  O        29.6955488658       18.9077933847        4.0813602937
  O        31.3453593472       16.2034230908       11.9996950402
  O        31.2590238039       16.3354640105        4.0134830530
  O        32.3650670576       17.0598018025        9.6468207027
  O        29.6816983168       17.2899173197        9.1516909350
  O        30.0807400727       15.7552365590        6.4123785980
  O        31.3957795020       17.8942354810        6.9950283390
  O        30.7864002390       19.6315994184        9.5009881670
  O        28.6462738697       18.0936698427        6.4040841896
  O        39.4567194206       35.2438206418       11.9969193786
  O        19.1412559915        0.0044838560        3.9956486413
  O        41.9695818471       35.1726968024       12.0820576883
  O        21.6911826921       -0.0694967637        3.9010428832
  O        51.3650941999       18.6142722495       12.0002945189
  O        10.7511272255       18.7471523888        3.9100109721
  O        50.0796126520       16.4127827647       12.0866299344
  O         9.5244020528       16.4830220070        3.9963220249
 Zr         9.2969921559       16.0527305616       14.1773852933
 Zr        49.8364246153       16.0065853724        1.7514660872
 Zr        22.0732623656        0.0298526820       14.1839245256
 Zr        42.4609532753       35.1535013153        1.8061237891
 Zr        29.5992676633       19.0858656201       14.2333261994
 Zr        29.5768359435       19.1642991355        1.8552488184
 Zr        11.0382056886       19.0519412618        1.8328270180
 Zr        11.0440495452       19.1548327803       14.2458788269
 Zr        31.3559755256       16.1010763184        1.8511596906
 Zr        31.3804570750       16.0052891907       14.2225368468
 Zr        18.6011877019       -0.0013646745        1.7684394948
 Zr        18.5064746666       -0.0076888410       14.2087145018
 Zr        12.3021283932       16.3235365274       15.9851652827
 Zr        48.6169948221       18.8332774315        0.0153349999
 Zr        20.3155251423        2.4737257874       15.9854068367
 Zr        40.6435863303       32.6870958702       15.9731985114
 Zr        28.3472952046       16.3414739045        0.0795976010
 Zr        32.6188150649       18.8281799054        0.0521795932
  H        32.2195937594       18.4022130139        7.0807417663
  O        30.9634054584       14.6611826162        9.7299109582
  H        31.0164305512       15.1399313829       10.6137286158
  H        30.1509114068       14.1328661972        9.7760098105
  O        32.7780649033       15.3180745857        6.9211412378
  H        33.6224170234       15.7366800921        7.1578587937
  H        32.4786374833       15.7713673387        6.1039780935
  O        27.8853620782       20.1381390444        8.1523529297
  H        27.5843230940       19.4702097007        7.4942559784
  H        27.5347401277       19.8494812863        9.0119489656
  O        30.3301503980       20.4489185564        6.3982890147
  H        30.1969846166       19.9938482713        5.5156526417
  H        29.6457385418       21.1376169971        6.4440437720
