     583
 i =      130, E =     -4830.6264809534
  C        11.8584171436       14.0536038904       13.7364602835
  C        12.4559120965       12.8905218924       13.0181694662
  C        11.7041976746       12.1716729333       12.0764838112
  C        12.2805142735       11.1094170455       11.3841264495
  C        13.6210365926       10.7395202399       11.6119175431
  C        14.3541995270       11.4429612855       12.5854774238
  C        13.7813619384       12.5079634223       13.2769889051
  C        14.2606416859        9.6488955660       10.8385257425
  C        14.2560952153        9.6568386369        9.4168229234
  C        13.7427474554       10.7588630918        8.6628989806
  C        49.1266607014       21.2332158154       13.8746079522
  C        48.5498993241       22.4010870772       13.1474346835
  C        49.3000840269       23.0687403834       12.1667835318
  C        48.7331288589       24.1078618876       11.4335817752
  C        47.4024290075       24.5091307046       11.6619038757
  C        46.6712477131       23.8598253343       12.6749548147
  C        47.2337209932       22.8149225887       13.4042980226
  C        46.7722538108       25.5869007786       10.8646598242
  C        46.7613165311       25.5573517335        9.4428991062
  C        47.2611495706       24.4421944362        8.6994344358
  C        14.8602384846        8.5706030403        8.7035727777
  C        14.8914136877        8.5969442674       11.5151747635
  C        49.1130276677       21.2033751432        2.1504136911
  C        48.5275507848       22.3645811980        2.8777518956
  C        49.2669939960       23.0258277998        3.8701441822
  C        48.6906040010       24.0603305158        4.6016248972
  C        47.3599432486       24.4565344767        4.3638576954
  C        46.6392103582       23.8109826055        3.3409898897
  C        47.2128231470       22.7750888432        2.6092183922
  C        46.7215825666       25.5316167822        5.1548221181
  C        46.7334582404       25.5281069196        6.5765160754
  C        47.2488407284       24.4288621886        7.3328843890
  C        40.6226357611       17.1202119523        7.3096888856
  C        40.6387709166       17.1283117017        4.5001504641
  C        11.8828111148       14.0865483585        2.2904932824
  C        12.4721359675       12.9106080267        2.9947049000
  C        11.7145678918       12.1774593885        3.9207922632
  C        12.2810835648       11.0949765318        4.5892670011
  C        13.6198837780       10.7211894520        4.3574790712
  C        14.3578778442       11.4366280402        3.3965870755
  C        13.7924999287       12.5178033398        2.7238466866
  C        14.2535376211        9.6244848505        5.1279381907
  C        14.2523420877        9.6444949927        6.5497836331
  C        13.7422283923       10.7533338073        7.2968542608
  C        22.5125329276        3.2448770152       13.7483170165
  C        23.2281378356        4.3510029593       13.0500145503
  C        24.2268759006        4.0721276055       12.1053073853
  C        24.8543164880        5.1123397875       11.4243748555
  C        24.4989117634        6.4539557977       11.6679090767
  C        23.5285396431        6.7244689657       12.6498931947
  C        22.8965404097        5.6860210908       13.3292315084
  C        25.1039301519        7.5608842821       10.8915854555
  C        25.0735775182        7.5537912993        9.4700497724
  C        24.3695294143        6.5543128040        8.7259080893
  C        38.3027232236       31.9295786068       13.8440484531
  C        37.5731895196       30.8397590592       13.1348354451
  C        36.6143398618       31.1429408667       12.1561881286
  C        35.9976011509       30.1220764162       11.4382708652
  C        36.3248647916       28.7730661346       11.6776851145
  C        37.2539366301       28.4773665262       12.6929013428
  C        37.8749273868       29.4969339284       13.4094903282
  C        35.7233753507       27.6808401577       10.8804868289
  C        35.7559356325       27.6951580755        9.4591823919
  C        36.4624915347       28.6972954083        8.7223005312
  C        25.6957373277        8.6230138850        8.7482167430
  C        25.7026441579        8.6359997176       11.5603836273
  C        38.3289783981       31.9620910030        2.1615041948
  C        37.6079698068       30.8886488666        2.9037423769
  C        36.6801707714       31.1969485911        3.9103591287
  C        36.0707695488       30.1781125165        4.6400588864
  C        36.3748524467       28.8256040400        4.3865240917
  C        37.2803889338       28.5273013149        3.3499529953
  C        37.8919553812       29.5426180478        2.6215944649
  C        35.7675118689       27.7259827674        5.1705119637
  C        35.7785587219       27.7181448437        6.5925045503
  C        36.4728617819       28.7085881225        7.3557743461
  C        46.1356298343       26.6208554773        7.2866205993
  C        46.0876053283       26.5799203613        4.4787278024
  C        22.4597416115        3.2557332162        2.2633691001
  C        23.1512253366        4.3648623153        2.9880753870
  C        24.1520933761        4.0796140497        3.9303669417
  C        24.7778011219        5.1102872585        4.6275854955
  C        24.4227704270        6.4557745573        4.4047419819
  C        23.4446960570        6.7343047403        3.4312451805
  C        22.8142458054        5.7038631625        2.7347465498
  C        25.0530349837        7.5545784128        5.1782009784
  C        25.0482990180        7.5494092775        6.6010224025
  C        24.3556270836        6.5533086289        7.3592838029
  C        26.6208953901       17.8549109656       13.7763601681
  C        25.3168877595       17.8984055322       13.0487372418
  C        25.0534804360       18.8992369919       12.0996631097
  C        23.8409696204       18.9174307752       11.4127308086
  C        22.8540141139       17.9398888861       11.6548387370
  C        23.1136743583       16.9622378915       12.6338314717
  C        24.3286802003       16.9373506922       13.3169291395
  C        21.5798216076       17.9260330958       10.8919497330
  C        21.5797226789       17.9049591843        9.4695434004
  C        22.7849898797       17.7795702968        8.7087175084
  C        34.4183490670       17.2246718269       13.8719812789
  C        35.7136209164       17.1651899887       13.1379554692
  C        35.9148895644       16.2052909699       12.1337035458
  C        37.1016392273       16.1857736448       11.4070213507
  C        38.1183627528       17.1271844484       11.6610171575
  C        37.9201100744       18.0656760599       12.6920334667
  C        36.7323977179       18.0886500426       13.4189228031
  C        39.3733141170       17.1368003027       10.8756746999
  C        39.3673179041       17.1477425548        9.4533140461
  C        38.1598461794       17.2624366208        8.6946795303
  C        20.3327592136       17.9243518862        8.7617672873
  C        20.3552827661       17.9294848192       11.5751455891
  C        34.4506306243       17.2347997629        2.1845949603
  C        35.7552504415       17.1305767213        2.8971702273
  C        35.9634593282       16.1534937750        3.8827047327
  C        37.1526358086       16.1369064911        4.6079669567
  C        38.1611393403       17.0887764360        4.3667463323
  C        37.9613881042       18.0348473280        3.3429058818
  C        36.7713963280       18.0611503222        2.6225978614
  C        39.4073179585       17.1141791391        5.1646145545
  C        39.3849283398       17.1340716841        6.5862526697
  C        38.1675730077       17.2517083921        7.3281243002
  C        35.1484400785       26.6385036267        7.2962392814
  C        35.1765741592       26.6560146780        4.4873297892
  C        26.5699317764       17.8232849418        2.3314219089
  C        25.2560017720       17.8700532268        3.0361774903
  C        24.9878472091       18.8781698067        3.9744973314
  C        23.7702418157       18.9019128240        4.6482655061
  C        22.7909190680       17.9179227882        4.4064343383
  C        23.0524795620       16.9352299267        3.4345206802
  C        24.2712536611       16.9088672009        2.7596946531
  C        21.5278032700       17.8987578921        5.1800781502
  C        21.5531585593       17.8895286709        6.6014968295
  C        22.7722196592       17.7721615054        7.3423931772
  C        14.0461466098       17.8285380151        2.2939550405
  C        15.3506456713       17.8846449792        3.0199853561
  C        15.6078328551       18.8874932782        3.9677222281
  C        16.8167441735       18.9073259289        4.6609138282
  C        17.8025322778       17.9270495375        4.4282701058
  C        17.5500298779       16.9482389044        3.4485742347
  C        16.3405971272       16.9239005981        2.7570492458
  C        19.0718920913       17.9089023117        5.1967995011
  C        19.0716824073       17.9057080724        6.6192877524
  C        17.8649371826       17.8080065821        7.3811165782
  C        46.8040629783       17.2173458870        2.1624148568
  C        45.5126669432       17.1524968707        2.9037673142
  C        45.3085355590       16.1777386078        3.8926924660
  C        44.1250651770       16.1577476270        4.6255816937
  C        43.1159714236       17.1121769947        4.3912210592
  C        43.3168269173       18.0651654487        3.3743969776
  C        44.5011848967       18.0895430511        2.6427549748
  C        41.8626570121       17.1231927709        5.1789326217
  C        41.8690790578       17.1326528617        6.6007057178
  C        43.0779194682       17.2367282026        7.3582931142
  C        20.3188358838       17.9154793605        7.3269802678
  C        20.2956627092       17.8882204128        4.5138816436
  C        46.7837571272       17.2333977684       13.8802413660
  C        45.4821994298       17.1331697336       13.1597755309
  C        45.2640873313       16.1417424087       12.1907353171
  C        44.0766444954       16.1198137237       11.4628210078
  C        43.0759214056       17.0860903232       11.6855313875
  C        43.2851105151       18.0477231934       12.6920085849
  C        44.4736336659       18.0762844561       13.4150694029
  C        41.8284687581       17.1106953089       10.8890169961
  C        41.8516129302       17.1255884498        9.4676013387
  C        43.0698180942       17.2303808818        8.7250813739
  C        46.1534359449       26.6373132687        8.7211631784
  C        46.1623235380       26.6560036746       11.5308111973
  C        14.0456200022       17.8311313664       13.7033687770
  C        15.3673872718       17.9038919981       13.0124529091
  C        15.6434828465       18.9198857108       12.0853324990
  C        16.8730868377       18.9557441511       11.4311472957
  C        17.8545651935       17.9746799995       11.6780415091
  C        17.5851984920       16.9872664858       12.6431524598
  C        16.3576770289       16.9510400485       13.3009206196
  C        19.1222024595       17.9483972319       10.9089404767
  C        19.0979703883       17.9246814488        9.4873264988
  C        17.8777435546       17.8165002546        8.7471096281
  C        28.8038652712       14.0875549236        2.3937356436
  C        28.1894990103       12.9162885197        3.0814447891
  C        28.9176104114       12.1643058975        4.0156725907
  C        28.3159967836       11.0915715810        4.6688769557
  C        26.9742814232       10.7459904937        4.4097740931
  C        26.2682319252       11.4772775232        3.4378584333
  C        26.8665293909       12.5515122408        2.7844598811
  C        26.3054270448        9.6668094176        5.1721403144
  C        26.2970551498        9.6935641132        6.5930441716
  C        26.8046303933       10.8059813693        7.3364197720
  C        32.1809366831       21.2422853934        2.1498996524
  C        32.7739363078       22.4085103234        2.8662186843
  C        32.0317448481       23.0748240146        3.8534415862
  C        32.6030118134       24.1131578589        4.5818036728
  C        33.9326778153       24.5121974796        4.3452986290
  C        34.6571993690       23.8639406277        3.3270738020
  C        34.0883105133       22.8206032355        2.5996140720
  C        34.5628779642       25.5853649434        5.1467323187
  C        34.5565381669       25.5545680174        6.5685009142
  C        34.0498039764       24.4382948854        7.3066097641
  C        25.6875361577        8.6169537617        7.3136648778
  C        25.6667458139        8.6166746241        4.5002391289
  C        32.1031588801       21.2261857913       13.8736721745
  C        32.6930456579       22.3760037872       13.1292369377
  C        31.9577663726       23.0377000141       12.1337724824
  C        32.5388926472       24.0673678273       11.3976065259
  C        33.8682420902       24.4656523861       11.6399253892
  C        34.5859874876       23.8175580036       12.6632435688
  C        34.0101591136       22.7818700493       13.3939287425
  C        34.5096081337       25.5465700289       10.8564792563
  C        34.5281589242       25.5357477149        9.4347256335
  C        34.0348662532       24.4297915398        8.6732818220
  C        40.6136160174       17.1219159183        8.7444310952
  C        40.5975681995       17.1343007774       11.5546366414
  C        28.7489302916       14.0652937914       13.8224392201
  C        28.1370052046       12.9227517161       13.0793564139
  C        28.8694922796       12.2337857417       12.0993937805
  C        28.2865713903       11.1799554634       11.3991329438
  C        26.9563024130       10.7889322232       11.6523209711
  C        26.2400257843       11.4684770106       12.6560473613
  C        26.8198368297       12.5226961383       13.3582064073
  C        26.3134801137        9.6981887313       10.8807855031
  C        26.3020028166        9.7107626979        9.4589398715
  C        26.8040410534       10.8160389897        8.7022329396
  C        18.1354026104        3.1809890679        2.3222700732
  C        17.4060760359        4.2782151389        3.0208613496
  C        16.3905814786        3.9998400573        3.9486223074
  C        15.7428538232        5.0398034570        4.6121377046
  C        16.0945249764        6.3835566511        4.3722515818
  C        17.0836266456        6.6530827953        3.4081870339
  C        17.7327294495        5.6157603473        2.7431176455
  C        15.4701990439        7.4912580691        5.1352845173
  C        15.4855883335        7.4906379270        6.5569974831
  C        16.1872940850        6.4971413466        7.3101899757
  C        42.9459615556       31.8594513205        2.0780337049
  C        43.6462955188       30.7718355650        2.8219165684
  C        44.5919348822       31.0931281654        3.8079191538
  C        45.1976210256       30.0875511699        4.5555437142
  C        44.8710859953       28.7344845495        4.3407712834
  C        43.9451932187       28.4201810354        3.3275965580
  C        43.3364069493       29.4253387303        2.5795655040
  C        45.4886368542       27.6551952807        5.1439846450
  C        45.4929988807       27.6810027330        6.5656711541
  C        44.8060964241       28.6891730769        7.3122958840
  C        14.8565021484        8.5630733919        7.2693462605
  C        14.8747701782        8.5629422172        4.4566732024
  C        42.9465118226       31.9614987892       13.8038529416
  C        43.6917549411       30.8854655303       13.0904524357
  C        44.6563098635       31.1914013496       12.1180900427
  C        45.2778454109       30.1718238409       11.4003868614
  C        44.9541557791       28.8214707948       11.6380463892
  C        44.0207440180       28.5237908795       12.6489032455
  C        43.3924716015       29.5405341306       13.3610864652
  C        45.5631729373       27.7240997724       10.8527649016
  C        45.5335834102       27.7175305607        9.4314618321
  C        44.8273940665       28.7078377881        8.6784804399
  C        35.1355518118       26.6278193344        8.7309008832
  C        35.1184896489       26.6054297921       11.5406878543
  C        18.1485294680        3.2469995049       13.7014973345
  C        17.4298541099        4.3438206310       12.9922952493
  C        16.4148637335        4.0525400084       12.0684820721
  C        15.7665310582        5.0831591084       11.3931034079
  C        16.1209236519        6.4284275225       11.6160640182
  C        17.1120163343        6.7118102580       12.5736230289
  C        17.7597219912        5.6829166585       13.2533832539
  C        15.4904588911        7.5241217991       10.8436046026
  C        15.4965241067        7.5075492455        9.4224734153
  C        16.1934832945        6.5059702535        8.6757956713
  H        10.6720742161       12.4658609403       11.8994653794
  H        11.6941321817       10.5509692238       10.6576354510
  H        15.3911632519       11.1681814374       12.7673020982
  H        14.3507250903       13.0710889569       14.0125781237
  H        13.3753770725       11.6308320456        9.1962119869
  H        50.3229053286       22.7489309644       11.9822887153
  H        49.3196646523       24.6233766470       10.6762141493
  H        45.6415447022       24.1601246022       12.8577124916
  H        46.6624913327       22.2892432852       14.1659295342
  H        47.6294806960       23.5757445781        9.2411475678
  H        14.8715382693        8.5881107639       12.6034752525
  H        50.2872373552       22.7033942469        4.0646596227
  H        49.2690949458       24.5761914568        5.3647769488
  H        45.6095151684       24.1075728628        3.1524856301
  H        46.6516910993       22.2523165964        1.8382906790
  H        47.6073862692       23.5516534719        6.8019731185
  H        40.6449713939       17.0884043268        3.4125733334
  H        48.6866715862       14.0949845882       15.7948299924
  H        10.6810870511       12.4665550959        4.0981399053
  H        11.6891735454       10.5245988640        5.3018864646
  H        15.3932696534       11.1585977292        3.2106257849
  H        14.3647717053       13.0870891139        1.9951959344
  H        13.3750787461       11.6217944456        6.7581880219
  H        47.9301438680       14.2176029980        1.7159885108
  H        47.7796316035       14.3721887803       14.4895223641
  H        49.0824603198       18.5518819816        2.8719983963
  H        10.4153081359       14.1343616647        0.0037070111
  H        24.4890887913        3.0338202555       11.9145920586
  H        25.6286222867        4.8954015269       10.6916765540
  H        23.2463006348        7.7570955528       12.8444405558
  H        22.1250922308        5.8857919097       14.0689081828
  H        23.8093384514        5.7979662471        9.2678701432
  H        36.3775194040       32.1860400659       11.9602298824
  H        35.2538430986       30.3604498971       10.6811221751
  H        37.5141789465       27.4384203126       12.8845078006
  H        38.6181440430       29.2767296592       14.1721219048
  H        37.0278151333       29.4467286702        9.2685690774
  H        25.7399732358        8.6192002165       12.6481419859
  H        36.4575474588       32.2410843560        4.1183114078
  H        35.3459025910       30.4226910543        5.4133456521
  H        37.5272936163       27.4871697113        3.1476869487
  H        38.6136910066       29.3172809493        1.8402729167
  H        37.0470672932       29.4663463676        6.8304868075
  H        46.1088018844       26.5871023484        3.3906873811
  H        44.6683578417       35.1161391745       15.8087778492
  H        24.4306898185        3.0416423507        4.0977168884
  H        25.5580752921        4.8821905098        5.3505779683
  H        23.1590304989        7.7685582198        3.2503621512
  H        22.0433377268        5.9158727472        1.9974953465
  H        23.7838817988        5.7968938328        6.8294556602
  H        44.9541568670       34.3906591482        1.7004050610
  H        44.9020114571       34.2069361974       14.4853462146
  H        40.6661878296       33.2090349819        2.8581994448
  H        23.1505704622        1.9576927578        0.0106840319
  H        25.8078237785       19.6626159606       11.9208487885
  H        23.6413979068       19.6996966838       10.6833908348
  H        22.3635333961       16.1987497173       12.8298058516
  H        24.5392608506       16.1688868437       14.0570875596
  H        23.7256245754       17.6562325530        9.2377151025
  H        35.1254311069       15.4865109221       11.9283935613
  H        37.2550046992       15.4332586267       10.6366744292
  H        38.6967117458       18.8006096589       12.8935237383
  H        36.5644697630       18.8277698911       14.1987688225
  H        37.2194195246       17.3859898087        9.2237453424
  H        20.3625977763       17.9691587438       12.6630354872
  H        35.1835220780       15.4290770826        4.1043558831
  H        37.3039971792       15.3804993362        5.3749323538
  H        38.7337077252       18.7763060906        3.1492553304
  H        36.5950154092       18.8126580823        1.8569537747
  H        37.2329898886       17.3617047622        6.7854113805
  H        35.1471121600       26.6833825957        3.3997184147
  H        28.5108103782       21.0883736050       15.9681511229
  H        25.7454293693       19.6365209460        4.1575049037
  H        23.5618910625       19.6870769740        5.3718168930
  H        22.3042904541       16.1689939244        3.2421368898
  H        24.4895717127       16.1378154579        2.0247084607
  H        23.7032360311       17.6440691508        6.7980352994
  H        28.9947311389       21.7240404199        1.7735473148
  H        29.1392920185       21.7587109207       14.6062575670
  H        32.1615234769       18.5829030574        2.9476253772
  H        27.4079287820       19.0810192690        0.0889737258
  H        14.8498158213       19.6469862760        4.1458688238
  H        17.0123894108       19.6913598949        5.3893103065
  H        18.3005973323       16.1833029064        3.2601686180
  H        16.1339520588       16.1550170539        2.0163709550
  H        16.9220842437       17.6936276727        6.8541877523
  H        46.0943500197       15.4498168304        4.0802423583
  H        43.9671761214       15.3949219664        5.3848159989
  H        42.5450573924       18.8092826100        3.1887706189
  H        44.6729665673       18.8401144465        1.8748189533
  H        44.0188144525       17.3525783848        6.8279582870
  H        20.2889662092       17.9179829409        3.4257532535
  H        46.0403983564       15.4016849684       12.0099805787
  H        43.9113694509       15.3494992377       10.7126847608
  H        42.5187481957       18.7988427989       12.8717358790
  H        44.6544244462       18.8381352529       14.1693789103
  H        44.0045256060       17.3400158605        9.2673571493
  H        46.1990466757       26.6824090687       12.6182640725
  H        52.7408934201       21.0624863130        0.1997486765
  H        14.8845307099       19.6753054019       11.8938452418
  H        17.0857813283       19.7467731361       10.7152057021
  H        18.3337476351       16.2228972926       12.8415113603
  H        16.1346702546       16.1758150127       14.0299779388
  H        16.9445134285       17.7085900017        9.2916613184
  H        52.3217228122       21.6729096326       14.2893334516
  H        52.0125967700       21.7015469551        1.5006921931
  H        49.0666683096       18.6074579303       13.1989514696
  H        13.2471747618       19.0165064536       15.9720289037
  H        29.9532156733       12.4316306849        4.2148952396
  H        28.8812933030       10.5077597559        5.3921681546
  H        25.2316163776       11.2193957047        3.2309522547
  H        26.3195173694       13.1381580248        2.0504957991
  H        27.1686217445       11.6736083244        6.7943878230
  H        31.0122348334       22.7509245685        4.0469175915
  H        32.0230095689       24.6287999679        5.3438916793
  H        35.6866404365       24.1622241600        3.1394752221
  H        34.6541568020       22.2941204912        1.8344596310
  H        33.6956574400       23.5675841887        6.7620279926
  H        25.6939842521        8.5972833434        3.4121670187
  H        30.9332031370       22.7251820857       11.9451549509
  H        31.9634008333       24.5812416142       10.6307651662
  H        35.6151720360       24.1138937386       12.8550587281
  H        34.5698937481       22.2586310225       14.1656014419
  H        33.6699739292       23.5524530976        9.2001310578
  H        40.5911125488       17.0954047640       12.6422950732
  H        32.5277861343       14.1504862531        0.2535119093
  H        29.8959661148       12.5367979825       11.9050795505
  H        28.8628677721       10.6414542174       10.6499326152
  H        25.2101924446       11.1803398571       12.8568925285
  H        26.2643953741       13.0619612486       14.1218965772
  H        27.1667212395       11.6923547557        9.2316056819
  H        33.3003134337       14.2138158189       14.4334805095
  H        33.4032354656       14.3490370364        1.6398723993
  H        32.0871073684       18.5337006296       13.1503651470
  H        30.2365423842       14.1917434772        0.0684255769
  H        16.1186731968        2.9633240359        4.1351721339
  H        14.9535328701        4.8204036256        5.3279357039
  H        17.3657786851        7.6859924788        3.2148352854
  H        18.5145232212        5.8184152220        2.0150055592
  H        16.7539481913        5.7398608491        6.7767040582
  H        44.8283537587       32.1401838435        3.9820721156
  H        45.9375754862       30.3412652661        5.3114150671
  H        43.6824180413       27.3781253980        3.1575147474
  H        42.5997879740       29.1899573985        1.8149203123
  H        44.2307999483       29.4369949383        6.7740095994
  H        14.8508530094        8.5460915287        3.3684524968
  H        44.8998423930       32.2340770580       11.9265954232
  H        46.0247277610       30.4130611190       10.6471289964
  H        43.7638633893       27.4840520919       12.8405324761
  H        42.6460851131       29.3176480240       14.1196122420
  H        44.2689521108       29.4707957216        9.2130302812
  H        35.0746528931       26.6182869792       12.6281017783
  H        36.6051278417       35.1340081105        0.1857862226
  H        16.1439492657        3.0129495946       11.8985811043
  H        14.9743542866        4.8562966703       10.6828623723
  H        17.3952237601        7.7473125989       12.7507788357
  H        18.5423654611        5.8933762565       13.9783979373
  H        16.7649755832        5.7557850186        9.2142421752
  H        36.2785871876       34.4825066238       14.2679848391
  H        36.3810249133       34.2091253899        1.5048189463
  H        40.5806298702       33.2027081549       13.1485126655
  H        17.4707846263        1.9473608704       15.9690670007
  H        28.7727528181       18.9618757097        4.3686404229
  H        28.9017129989       18.3641178646       11.8823006133
  H        31.7747078236       15.8824658588       11.5563034598
  H        30.9807361602       15.4165479269        4.3494037633
  H        28.6373626233       17.1383802844        6.8447391092
  H        29.7358530957       14.9325288361        6.9112801713
  H        30.5509518475       20.0729985445       10.0832554123
  H        32.7130470851       17.7040405882        9.3701418860
  H        18.8534207107        0.8690535008        4.3402650517
  H        40.5278873831       35.2290378992       11.9469498859
  H        42.3244840024       34.4193679777       11.5852449758
  H        22.0878372733        0.6917622268        4.3568764606
  H        11.5971000079       18.7129527620        4.3872428347
  H        52.2647021360       18.4307763166       11.6723358119
  H        49.2550255036       16.4768880414       11.5794326449
  H        10.1502124488       15.7981448243        4.2980715457
  H        50.8496215816       17.6923273211       11.9492761542
  H        10.0460368597       17.3944168898        4.0571414021
  H        20.2147345763        0.0022086990        4.0471007278
  H        39.1836000805       36.1244165760       11.6813970309
 Ni        30.9901458731       17.9372345053       10.9104615130
 Ni        31.1130136911       16.3535535644        8.3215217101
 Ni        30.1397879565       18.7703069902        7.9909628693
 Ni        30.3536035711       17.4655672664        5.2503975094
  O        10.6497754841       14.3651571592       13.4806955487
  O        12.6131207643       14.6575285358       14.5787335010
  O        49.1479070466       16.8460000551       15.9845901867
  O        50.3502295054       20.9359564198       13.6430331074
  O        48.3485337960       20.5933491210       14.6608331764
  O        11.0512319858       17.0539409447       14.4954334354
  O        50.3209611818       20.8817060691        2.4119065879
  O        48.3467254167       20.5867516914        1.3321734164
  O        49.5436474645       18.2484639967        2.0733371640
  O        12.3588600446       18.6244945715        0.0047825553
  O        48.6931525747       14.1487243942       14.7461120822
  O         8.2098807322       14.2103414889        1.3276033033
  O        10.7353993704       14.5067347773        2.6694664788
  O        12.5718372091       14.5828474631        1.3335748716
  O        22.8448156856        2.0437519520       13.4819125216
  O        21.6056693204        3.5925193630       14.5844551953
  O        42.0582352961       34.1374036035       15.9738641729
  O        37.9818019409       33.1378403191       13.5674088620
  O        39.2181710506       31.5761715604       14.6616585365
  O        20.3084667991        1.0396413387       14.4969454167
  O        38.0246836226       33.1857947042        2.4202954613
  O        39.2191654150       31.5837938817        1.3315204094
  O        40.6522962173       33.7693464055        2.0653272948
  O        18.2554495114        1.3761551264        0.0018752400
  O        44.6222158921       35.1005677415       14.7536145976
  O        24.2053859158        0.0000446527        1.3259052082
  O        22.7529574473        2.0578704225        2.5890363542
  O        21.6243538239        3.5960362697        1.3475884559
  O        27.4983825588       18.7490565939       13.4874573406
  O        26.7643045972       16.9351373316       14.6507044064
  O        30.6668394121       19.4078681829        0.0753410840
  O        33.5376286436       16.3402485740       13.5804440953
  O        34.2721298090       18.1680377092       14.7251388538
  O        29.5725113915       17.0681379148       14.5751854404
  O        33.5595384288       16.3428554311        2.4194699682
  O        34.3000057000       18.2423076937        1.4104167646
  O        31.6501307027       18.3140549916        2.1678305075
  O        30.3245926142       15.1589182401        0.0880237958
  O        28.5530681779       21.0370293339       14.8972731162
  O        28.5134726010       20.9582549203        1.4163996609
  O        27.4601222381       18.6760960497        2.6677213055
  O        26.6943551753       16.9304076908        1.4180509653
  O        13.1489514023       18.6929577238        2.5926676021
  O        13.9194583318       16.9161546464        1.4101080396
  O        50.5957254262       19.3501385011        0.0254038632
  O        47.6836055723       16.3269846245        2.4222022719
  O        46.9518313438       18.1757510201        1.3295863339
  O        11.0695835864       17.0155743809        1.4948420551
  O        47.6741142511       16.3361715908       13.6471298544
  O        46.9260884625       18.2360043747       14.6587209019
  O        49.5682502152       18.3176862174       13.9770104972
  O        10.3184715276       15.1002707950        0.0021268839
  O        52.6707356291       21.0278951897        1.2469375821
  O        12.1468235987       20.8910892971       14.6680418510
  O        13.1088548852       18.6135311576       13.3202846979
  O        13.9574665382       16.9869407625       14.6602627519
  O        29.9898126132       14.4373803103        2.7306669756
  O        28.0881285223       14.6543179890        1.4979470301
  O        32.1373623999       16.8630015375        0.0708548369
  O        30.9662845288       20.9505388325        2.4166497923
  O        32.9468353021       20.6020342944        1.3446584246
  O        29.5684339856       17.0789721364        1.5827662639
  O        30.8715136525       20.9427805479       13.6540756945
  O        32.8773773619       20.5900265978       14.6623539949
  O        31.6539773569       18.3077510449       13.9938985535
  O        28.2924064239       18.6799095210        0.0816513068
  O        32.4900357385       14.2103690494        1.3293335399
  O        32.4052308811       14.2263136070       14.8120943449
  O        29.9210065904       14.4376995089       13.4903792401
  O        28.0393612530       14.5899223723       14.7508119347
  O        17.8892387045        1.9666351368        2.6679114753
  O        18.9562336738        3.5271467321        1.4130660592
  O        39.1687032180       34.1388360637        0.0023132639
  O        43.2802014730       33.0589769485        2.3367902645
  O        42.0345178849       31.5064791160        1.2467363722
  O        20.3177429369        1.0368026181        1.4852852193
  O        43.2760416113       33.1825778723       13.5698016231
  O        42.0052485761       31.5841149146       14.5778892184
  O        40.5791614559       33.7751816405       13.9308001411
  O        22.3673573350        1.3846151704        0.0029869540
  O        36.6727747082       35.0997761507        1.2384147261
  O        16.4455628302        0.0642735643       14.6631824769
  O        17.9364837034        2.0433994212       13.3212785107
  O        18.9190573535        3.5931293842       14.6608207500
  O        29.7398008631       18.8298208555       12.0746052483
  O        29.7077130790       19.0412614377        4.0868269168
  O        31.1363435297       16.4102347330       12.0744797233
  O        31.3048921068       16.2734943086        4.0054928336
  O        32.1510917748       16.9993428815        9.7475745645
  O        30.4162651022       15.6083001377        6.7573528541
  O        31.5625718139       17.8876882399        6.8426139240
  O        31.0484820316       19.3469146429        9.6638879719
  O        28.8571145536       18.0301361901        6.5161370095
  O        39.4567499894       35.2437645133       11.9968719500
  O        19.1413421523        0.0045455933        3.9956495988
  O        41.9696469240       35.1728713462       12.0821273885
  O        21.6911821277       -0.0693795322        3.9009905103
  O        51.3649564573       18.6142312012       12.0003835053
  O        10.7511816763       18.7472668617        3.9099706878
  O        50.0795366938       16.4128814855       12.0866722667
  O         9.5245476178       16.4830449201        3.9963303933
 Zr         9.2953268154       16.0528718542       14.1772003895
 Zr        49.8353890337       16.0066700337        1.7517195049
 Zr        22.0734184950        0.0298104715       14.1838859123
 Zr        42.4610739483       35.1532452065        1.8060523570
 Zr        29.6050469537       19.1186587918       14.2797873354
 Zr        29.5870240732       19.1833259141        1.8718361272
 Zr        11.0370907496       19.0519806816        1.8325707953
 Zr        11.0429994658       19.1547756776       14.2462742819
 Zr        31.3576175831       16.0941901325        1.8554126612
 Zr        31.3815873850       16.0392691878       14.2731340087
 Zr        18.6012461558       -0.0013309868        1.7684407850
 Zr        18.5065568526       -0.0076618753       14.2087253475
 Zr        12.3008438994       16.3235479727       15.9850566725
 Zr        48.6148153750       18.8326788112        0.0151675454
 Zr        20.3151603881        2.4733503442       15.9853149064
 Zr        40.6437646605       32.6869890047       15.9731579065
 Zr        28.3491922799       16.3432721218        0.0879797644
 Zr        32.6354520823       18.8486719851        0.0499803999
  H        32.3923962846       18.3812294727        6.7313310189
  O        28.5910320427       15.6885293219       10.9093330592
  H        29.4256915931       15.7643638567       11.4263331821
  H        28.1401695203       14.9186890121       11.2915939744
  O        33.4166268689       15.0963254918        5.6643145725
  H        32.6799348879       14.9701625920        6.2905794949
  H        33.0028997601       15.6754998079        4.9918697520
  O        28.2117600365       19.5588607512        8.6584543571
  H        27.8982769300       19.0723700640        7.8529997834
  H        27.8903208616       19.0420129778        9.4191837805
  O        30.2894287456       20.5155309989        6.5024980911
  H        30.1225427290       20.1079356900        5.6091917576
  H        29.5718151079       21.1578338514        6.6247543791
  H        30.4171962348       15.4621325751        9.2064385958
