     583
 i =      315, E =     -4830.6164570983
  C        11.8585395162       14.0534505511       13.7364392423
  C        12.4559741773       12.8904314594       13.0183132280
  C        11.7044210402       12.1717584174       12.0763277145
  C        12.2808045206       11.1095534427       11.3839839330
  C        13.6212677654       10.7394760302       11.6119926720
  C        14.3542154346       11.4426806162       12.5859147423
  C        13.7813269569       12.5076377774       13.2774345835
  C        14.2609154103        9.6489138924       10.8385595037
  C        14.2562717793        9.6569000208        9.4168571904
  C        13.7429938077       10.7589556428        8.6629270953
  C        49.1267465485       21.2332077946       13.8745538283
  C        48.5500770100       22.4011062105       13.1475127936
  C        49.3000930417       23.0684248797       12.1664845788
  C        48.7331474749       24.1075471328       11.4332879818
  C        47.4026119145       24.5092282014       11.6619418992
  C        46.6716924902       23.8603687156       12.6754986445
  C        47.2341358667       22.8154670375       13.4048454339
  C        46.7723732493       25.5869145773       10.8646602757
  C        46.7614203042       25.5572975911        9.4428994569
  C        47.2613054422       24.4421883818        8.6993925289
  C        14.8604164873        8.5706862555        8.7035725105
  C        14.8917960347        8.5969973585       11.5151877412
  C        49.1130764531       21.2034529050        2.1503908700
  C        48.5277938051       22.3647900711        2.8775042617
  C        49.2670181125       23.0254517857        3.8704791818
  C        48.6907134499       24.0599944579        4.6019566442
  C        47.3603251041       24.4568644932        4.3636898020
  C        46.6399450006       23.8120385279        3.3400826486
  C        47.2134516838       22.7761268732        2.6082793004
  C        46.7219133188       25.5318214434        5.1547523059
  C        46.7336680952       25.5281448019        6.5764557439
  C        47.2490382252       24.4288990851        7.3328368303
  C        40.6223626601       17.0774128633        7.3101886376
  C        40.6348901821       17.1036885802        4.5000905794
  C        11.8829133869       14.0864012992        2.2905391549
  C        12.4721554460       12.9105328742        2.9946046080
  C        11.7148445298       12.1777491337        3.9212315337
  C        12.2814360755       11.0953231235        4.5896800935
  C        13.6200834221       10.7211734177        4.3574472987
  C        14.3577416795       11.4361763745        3.3959515392
  C        13.7923130256       12.5172966241        2.7232034977
  C        14.2537948113        9.6245554074        5.1279313127
  C        14.2525214285        9.6445903931        6.5497763130
  C        13.7424937705       10.7534510003        7.2968805908
  C        22.5132462148        3.2450679945       13.7469529930
  C        23.2301594860        4.3488990876       13.0461717484
  C        24.2259653511        4.0656778923       12.0993653622
  C        24.8565311709        5.1025802636       11.4162027676
  C        24.5077939601        6.4461940558       11.6588485202
  C        23.5398905561        6.7208300092       12.6424799142
  C        22.9046568378        5.6857111333       13.3242450840
  C        25.1181752442        7.5508245373       10.8826509615
  C        25.0920596893        7.5444768719        9.4607811011
  C        24.3885120639        6.5468005427        8.7139538134
  C        38.3027615095       31.9303092519       13.8444825457
  C        37.5728435897       30.8408888083       13.1355140320
  C        36.6154967534       31.1448383512       12.1557427121
  C        35.9982541331       30.1243161935       11.4379914275
  C        36.3235547671       28.7752287362       11.6792003064
  C        37.2510741284       28.4787655079       12.6955331065
  C        37.8727714702       29.4980481274       13.4117433337
  C        35.7202695003       27.6837504706       10.8829000134
  C        35.7521370326       27.6977254436        9.4616548518
  C        36.4620704882       28.6967567998        8.7236188761
  C        25.7177987399        8.6135077714        8.7411964737
  C        25.7187194651        8.6239254593       11.5530949023
  C        38.3284582021       31.9613729632        2.1618335452
  C        37.6066468952       30.8876512933        2.9041954125
  C        36.6797924749       31.1961521857        3.9117332125
  C        36.0693728325       30.1776993596        4.6413807508
  C        36.3708184816       28.8245946803        4.3872164039
  C        37.2752538133       28.5260664877        3.3496103800
  C        37.8881178932       29.5411246480        2.6214639191
  C        35.7613533822       27.7261033947        5.1721119322
  C        35.7729241091       27.7196090281        6.5943907626
  C        36.4716516259       28.7076205792        7.3570174985
  C        46.1356958356       26.6207939101        7.2866031174
  C        46.0880107059       26.5802193804        4.4787041676
  C        22.4631345637        3.2564312442        2.2624886282
  C        23.1619562779        4.3639834382        2.9831098357
  C        24.1667909496        4.0755580204        3.9205043863
  C        24.8000157364        5.1039054322        4.6145609181
  C        24.4489927506        6.4509835237        4.3944378894
  C        23.4673501025        6.7326292503        3.4253102950
  C        22.8295536433        5.7045480004        2.7315120537
  C        25.0837675309        7.5474422850        5.1685765574
  C        25.0752550522        7.5417086833        6.5914541954
  C        24.3786347603        6.5465379203        7.3472505055
  C        26.6210440401       17.8593218812       13.7773629038
  C        25.3170704481       17.9028067182       13.0476512663
  C        25.0554730427       18.9033708388       12.0975697140
  C        23.8426957906       18.9226176581       11.4110196759
  C        22.8548308907       17.9455247549       11.6526590366
  C        23.1138275032       16.9671917306       12.6308784292
  C        24.3282894466       16.9422976697       13.3153111199
  C        21.5802230130       17.9329183469       10.8905206973
  C        21.5794242713       17.9122125267        9.4682496989
  C        22.7845533673       17.7884203566        8.7065859586
  C        34.4203534480       17.2235412667       13.8770617271
  C        35.7166542598       17.1610013331       13.1417390887
  C        35.9215056650       16.1837701628       12.1550135741
  C        37.1077184670       16.1558540210       11.4274986982
  C        38.1197175823       17.1069515678       11.6628749048
  C        37.9177599297       18.0640380153       12.6756793739
  C        36.7307298513       18.0943906610       13.4042121635
  C        39.3742674041       17.1082023000       10.8764665573
  C        39.3675172543       17.1046331585        9.4542801404
  C        38.1580710501       17.2020516093        8.6959737907
  C        20.3320527764       17.9304761393        8.7612469638
  C        20.3560169585       17.9361380579       11.5744305743
  C        34.4444250443       17.2346795724        2.1869251889
  C        35.7495166271       17.1301743774        2.9039034396
  C        35.9877564298       16.0987807213        3.8256260575
  C        37.1744870654       16.0721894449        4.5563156268
  C        38.1553853622       17.0660204670        4.3735551821
  C        37.9279337682       18.0668051254        3.4109558191
  C        36.7374043272       18.1042852234        2.6908030778
  C        39.4055182418       17.0785289279        5.1673537977
  C        39.3842833262       17.0848965006        6.5878831407
  C        38.1656513108       17.1869778838        7.3296125497
  C        35.1386674726       26.6434194254        7.2998781799
  C        35.1675509024       26.6560880374        4.4904641668
  C        26.5695466900       17.8233502285        2.3305125954
  C        25.2567408372       17.8658568534        3.0399034876
  C        24.9737268284       18.8943402160        3.9513694627
  C        23.7553513535       18.9174030743        4.6247024011
  C        22.7907983299       17.9135407542        4.4076129064
  C        23.0680229380       16.9080176763        3.4644655591
  C        24.2875197183       16.8822776646        2.7903489812
  C        21.5260061300       17.8979537107        5.1796099283
  C        21.5512268455       17.8941199982        6.6005277811
  C        22.7712562061       17.7809466302        7.3403412443
  C        14.0457122663       17.8281978779        2.2941883655
  C        15.3497126755       17.8835568193        3.0207231781
  C        15.6079286185       18.8879144652        3.9665347376
  C        16.8167965241       18.9074653605        4.6596870771
  C        17.8011681924       17.9254200239        4.4287263339
  C        17.5474901376       16.9446870739        3.4513420551
  C        16.3381047482       16.9206680364        2.7598487007
  C        19.0706151658       17.9081245472        5.1967992386
  C        19.0703498953       17.9081380869        6.6191866786
  C        17.8638434100       17.8110313599        7.3815884997
  C        46.8035881036       17.2163937709        2.1618030468
  C        45.5110965813       17.1473478462        2.9024017577
  C        45.3066887183       16.1647960186        3.8835521723
  C        44.1229293138       16.1382937854        4.6158199614
  C        43.1133788712       17.0940062041        4.3890057202
  C        43.3144643377       18.0554333728        3.3801923408
  C        44.4992651428       18.0860046953        2.6488466815
  C        41.8600714619       17.0963539704        5.1775711209
  C        41.8678297888       17.0978934456        6.5995359099
  C        43.0770942526       17.2036564478        7.3565375754
  C        20.3174857906       17.9200592979        7.3265944208
  C        20.2942850121       17.8850276970        4.5133461211
  C        46.7840688624       17.2328499705       13.8805658396
  C        45.4826196657       17.1294899696       13.1596790655
  C        45.2653318683       16.1315151899       12.1972447341
  C        44.0782067506       16.1039440537       11.4690909508
  C        43.0773019097       17.0714287790       11.6849550624
  C        43.2858741321       18.0405726116       12.6842751673
  C        44.4740597921       18.0743112629       13.4079419607
  C        41.8295766569       17.0883736712       10.8885715442
  C        41.8520792020       17.0938080638        9.4671307252
  C        43.0696170602       17.1984474110        8.7233005364
  C        46.1534495503       26.6372038902        8.7211552025
  C        46.1624223484       26.6560375792       11.5308023263
  C        14.0459482926       17.8317318581       13.7036205914
  C        15.3679945037       17.9060704202       13.0132836799
  C        15.6430785271       18.9225139029       12.0862948346
  C        16.8726103749       18.9597553423       11.4320210308
  C        17.8551309982       17.9796700132       11.6787325860
  C        17.5869589371       16.9920692701       12.6440081107
  C        16.3594390522       16.9544375700       13.3018035599
  C        19.1225059611       17.9544501859       10.9089793288
  C        19.0975608042       17.9302927988        9.4873632357
  C        17.8771196461       17.8209705013        8.7475474697
  C        28.8112365732       14.0841652451        2.3630275379
  C        28.2064355183       12.9106194358        3.0579750588
  C        28.9362060126       12.1765400067        4.0048444833
  C        28.3416968475       11.1040911012        4.6664188694
  C        27.0053740316       10.7400515261        4.4026865525
  C        26.2983356937       11.4547459658        3.4189300103
  C        26.8890957156       12.5286522547        2.7580665509
  C        26.3395352240        9.6590292906        5.1664366249
  C        26.3256799257        9.6852781437        6.5875477439
  C        26.8280410541       10.7984424934        7.3332049786
  C        32.1765003543       21.2347033705        2.1586933994
  C        32.7669773024       22.3999171425        2.8820891042
  C        32.0092269975       23.0940425744        3.8391969567
  C        32.5802186790       24.1338342973        4.5683009551
  C        33.9206823925       24.5111943909        4.3558418504
  C        34.6591968898       23.8369187057        3.3656804656
  C        34.0929294025       22.7894209496        2.6419986804
  C        34.5498149319       25.5893410056        5.1523875234
  C        34.5412555533       25.5620492571        6.5735163796
  C        34.0266547992       24.4501827028        7.3122393104
  C        25.7138731277        8.6082242479        7.3062996474
  C        25.7020280183        8.6083920024        4.4930116289
  C        32.1023867268       21.2254688339       13.8759411201
  C        32.6898242972       22.3783424339       13.1328981658
  C        31.9520037267       23.0412236540       12.1402251455
  C        32.5303047189       24.0734462935       11.4052072449
  C        33.8598178286       24.4721116536       11.6453982103
  C        34.5801894128       23.8230382364       12.6663445464
  C        34.0066924805       22.7855984309       13.3964501672
  C        34.5004876252       25.5529415153       10.8611565090
  C        34.5157441397       25.5432967510        9.4393555705
  C        34.0136435726       24.4408721750        8.6786370641
  C        40.6136867736       17.0813806370        8.7448255373
  C        40.5989051495       17.1149327191       11.5545092559
  C        28.7520393839       14.0611535277       13.8175019876
  C        28.1458216538       12.9136833316       13.0790256650
  C        28.8752145306       12.2391906457       12.0875230381
  C        28.2975496073       11.1821784120       11.3887007853
  C        26.9733359836       10.7760636467       11.6512166663
  C        26.2609982710       11.4404171735       12.6677831358
  C        26.8375699156       12.4957047691       13.3715630640
  C        26.3322879420        9.6867693808       10.8763812164
  C        26.3222211871        9.7010266015        9.4541231649
  C        26.8232617593       10.8079790188        8.6990380746
  C        18.1356198462        3.1810099299        2.3222428248
  C        17.4063788153        4.2783231551        3.0209487831
  C        16.3903093429        4.0000070235        3.9480757140
  C        15.7426038852        5.0400041473        4.6115919819
  C        16.0949135992        6.3836685628        4.3722589172
  C        17.0847108574        6.6531668541        3.4089291871
  C        17.7337943405        5.6158022251        2.7438802522
  C        15.4705109541        7.4913727386        5.1352842163
  C        15.4857935094        7.4907497990        6.5569999929
  C        16.1873944772        6.4971574632        7.3101586260
  C        42.9459444619       31.8596241909        2.0780257759
  C        43.6463924624       30.7719236861        2.8219724862
  C        44.5920144161       31.0932703817        3.8079367195
  C        45.1977640536       30.0877322697        4.5555967399
  C        44.8712737953       28.7346797526        4.3408055565
  C        43.9453709847       28.4203119608        3.3276750478
  C        43.3365168262       29.4254452735        2.5796460262
  C        45.4888456036       27.6553588451        5.1439894902
  C        45.4930431748       27.6809605732        6.5656881406
  C        44.8060648491       28.6890774322        7.3123171239
  C        14.8566758149        8.5631711856        7.2693441784
  C        14.8751169500        8.5630465099        4.4566688665
  C        42.9464400572       31.9616316987       13.8038838194
  C        43.6916786166       30.8854364325       13.0903624851
  C        44.6565412072       31.1913414897       12.1183392513
  C        45.2781065130       30.1717582729       11.4006171304
  C        44.9540836591       28.8214656971       11.6380067906
  C        44.0202999288       28.5237815917       12.6484961024
  C        43.3920144065       29.5405515980       13.3606652899
  C        45.5631594358       27.7240568361       10.8527589787
  C        45.5335098968       27.7173741191        9.4314565526
  C        44.8273193295       28.7076957345        8.6785018713
  C        35.1268682543       26.6327670777        8.7344757897
  C        35.1134568702       26.6101237881       11.5441746801
  C        18.1488085020        3.2470516208       13.7015531028
  C        17.4302510671        4.3439430921       12.9922088753
  C        16.4147191298        4.0526891324       12.0690005252
  C        15.7664177334        5.0833189092       11.3935817450
  C        16.1214024289        6.4285045754       11.6160064349
  C        17.1131706390        6.7118766768       12.5728483403
  C        17.7608639903        5.6829664706       13.2526192252
  C        15.4908175104        7.5241955881       10.8435819641
  C        15.4967508140        7.5076382663        9.4224451091
  C        16.1936004880        6.5059811943        8.6757657012
  H        10.6723633176       12.4660086388       11.8990801806
  H        11.6945666217       10.5512324655       10.6572780086
  H        15.3910900254       11.1677302355       12.7680111203
  H        14.3506349428       13.0705092637       14.0132550901
  H        13.3757471237       11.6309906438        9.1962164519
  H        50.3227949903       22.7484008478       11.9817030627
  H        49.3195999569       24.6228257537       10.6756947883
  H        45.6422170972       24.1611729838       12.8587145525
  H        46.6630968313       22.2902499488       14.1669358014
  H        47.6297563911       23.5757591532        9.2410555692
  H        14.8720742027        8.5881262031       12.6034922665
  H        50.2870431789       22.7025693142        4.0654208869
  H        49.2690938209       24.5754186921        5.3654886991
  H        45.6105787845       24.1093726732        3.1509610977
  H        46.6525792414       22.2540433265        1.8366997357
  H        47.6077375125       23.5517400151        6.8019514096
  H        40.6390892139       17.0767638643        3.4120721262
  H        48.6869251878       14.0948893964       15.7949204398
  H        10.6814905493       12.4670355264        4.0989685339
  H        11.6897384683       10.5251998243        5.3026734793
  H        15.3929636019       11.1578334031        3.2095216481
  H        14.3644302930       13.0861693502        1.9941138084
  H        13.3754951311       11.6220095605        6.7582762111
  H        47.9302819385       14.2174159558        1.7160392641
  H        47.7796809435       14.3722421046       14.4898843734
  H        49.0828145357       18.5521147525        2.8720889846
  H        10.4157729050       14.1343510160        0.0037374941
  H        24.4839726535        3.0262465485       11.9091173434
  H        25.6288877926        4.8812964700       10.6827520652
  H        23.2624733075        7.7547606940       12.8370710445
  H        22.1356941410        5.8899283953       14.0653446916
  H        23.8253519299        5.7911075524        9.2537676467
  H        36.3803544581       32.1881431330       11.9589315330
  H        35.2554980067       30.3628061206       10.6799069667
  H        37.5093295323       27.4395524840       12.8883554745
  H        38.6149065029       29.2777899755       14.1754045078
  H        37.0306246330       29.4442513897        9.2692261122
  H        25.7547811003        8.6056149140       12.6408751813
  H        36.4585287571       32.2404022757        4.1206335620
  H        35.3454884872       30.4232793726        5.4152838210
  H        37.5204590013       27.4857912971        3.1459425271
  H        38.6089125616       29.3148471936        1.8395026450
  H        37.0485280789       29.4629662605        6.8311718829
  H        46.1094082458       26.5876576323        3.3906679358
  H        44.6683973119       35.1162223907       15.8088655688
  H        24.4424817513        3.0366486280        4.0868165648
  H        25.5824991568        4.8725069761        5.3341324885
  H        23.1844921773        7.7678916170        3.2457686587
  H        22.0561021479        5.9201278418        1.9979249550
  H        23.8072584267        5.7912237299        6.8155085520
  H        44.9542828177       34.3908285278        1.7005341621
  H        44.9021388225       34.2069943997       14.4854753808
  H        40.6659282839       33.2092264547        2.8583753946
  H        23.1506951316        1.9580800174        0.0101140484
  H        25.8114831739       19.6656154067       11.9201213845
  H        23.6420576006       19.7063155159       10.6834214075
  H        22.3632702183       16.2039893855       12.8264332310
  H        24.5373513776       16.1750577304       14.0573344042
  H        23.7246522259       17.6655183420        9.2365139309
  H        35.1354004692       15.4566020295       11.9663568774
  H        37.2651548279       15.3883918536       10.6727967514
  H        38.6909802890       18.8065405412       12.8620315042
  H        36.5596012248       18.8466946242       14.1707513255
  H        37.2175082413       17.3170219354        9.2266403116
  H        20.3639877705       17.9756716615       12.6623173235
  H        35.2322066585       15.3290653699        3.9694298406
  H        37.3528083275       15.2735092886        5.2734368857
  H        38.6806404677       18.8385973938        3.2638201464
  H        36.5392570416       18.8952137786        1.9715390168
  H        37.2313599561       17.2862615186        6.7844427846
  H        35.1398252551       26.6803397964        3.4027001272
  H        28.5128303293       21.0858441023       15.9718776419
  H        25.7189903921       19.6703609000        4.1111612309
  H        23.5336441840       19.7184955800        5.3266905128
  H        22.3313914567       16.1258079134        3.2928339639
  H        24.5185477526       16.0953031987        2.0763223052
  H        23.7008655217       17.6543266974        6.7931349160
  H        28.9952785949       21.7192872274        1.7771868589
  H        29.1395733953       21.7578760358       14.6086070727
  H        32.0848938943       18.4998159471        3.0019358814
  H        27.4112433069       19.0853043194        0.0978368890
  H        14.8509274439       19.6488129298        4.1429971600
  H        17.0136963523       19.6927254150        5.3864181738
  H        18.2970473477       16.1783697609        3.2645719600
  H        16.1303277028       16.1505652874        2.0207679253
  H        16.9208725222       17.6955203635        6.8550954581
  H        46.0927166234       15.4357828603        4.0658370502
  H        43.9654097718       15.3692350419        5.3688501563
  H        42.5427993268       18.8010535904        3.2001646700
  H        44.6708208165       18.8428472308        1.8869796260
  H        44.0174768379       17.3211122791        6.8256723817
  H        20.2876697094       17.9100991717        3.4251120416
  H        46.0420701590       15.3906362662       12.0218983504
  H        43.9133520246       15.3281637881       10.7245000357
  H        42.5193287589       18.7928650350       12.8582839349
  H        44.6544378633       18.8413447835       14.1571179615
  H        44.0044560500       17.3105204629        9.2648974407
  H        46.1992286515       26.6825942629       12.6182496176
  H        52.7410062266       21.0626283761        0.1997783233
  H        14.8833630664       19.6771767633       11.8948566544
  H        17.0843184546       19.7510822988       10.7161079675
  H        18.3363035840       16.2284969952       12.8424329314
  H        16.1374400831       16.1789205275       14.0308641760
  H        16.9441394481       17.7131595619        9.2925242248
  H        52.3223048814       21.6731314932       14.2891735468
  H        52.0132752063       21.7020833537        1.5008719573
  H        49.0670649739       18.6076908057       13.1988556063
  H        13.2471696886       19.0166265992       15.9721691930
  H        29.9671083093       12.4609582824        4.2064120015
  H        28.9091888266       10.5344922001        5.3992961020
  H        25.2659733148       11.1836378835        3.2076337599
  H        26.3402152663       13.1017815732        2.0148758550
  H        27.1916312528       11.6673236436        6.7929350548
  H        30.9746476500       22.7994813686        4.0042166956
  H        31.9885247297       24.6703104520        5.3070990670
  H        35.6962599918       24.1196534178        3.1966855864
  H        34.6681466486       22.2437526855        1.8975490818
  H        33.6651135331       23.5835384793        6.7664935761
  H        25.7322143258        8.5892028651        3.4049982568
  H        30.9279555964       22.7273356819       11.9513536074
  H        31.9519236285       24.5877486361       10.6407817865
  H        35.6094113739       24.1201900821       12.8567448122
  H        34.5678344563       22.2617946520       14.1667402848
  H        33.6416022042       23.5671642237        9.2062999488
  H        40.5929397886       17.0866791616       12.6424956030
  H        32.5221803483       14.1522453416        0.2560926552
  H        29.8948064150       12.5571046351       11.8817846667
  H        28.8725359890       10.6543744899       10.6310121568
  H        25.2365619312       11.1399855976       12.8779824696
  H        26.2850119767       13.0217093720       14.1465856664
  H        27.1815318076       11.6854325290        9.2295460185
  H        33.2999145891       14.2079610896       14.4327438984
  H        33.4064888393       14.3665311804        1.6259676351
  H        32.0903512336       18.5280630897       13.1529502977
  H        30.2356532674       14.1933273961        0.0704431132
  H        16.1179515988        2.9635239872        4.1341593169
  H        14.9528607605        4.8206590121        5.3269433374
  H        17.3675115133        7.6860064439        3.2161730948
  H        18.5161924439        5.8183909010        2.0164000539
  H        16.7539710260        5.7398476396        6.7766287593
  H        44.8283626989       32.1403540313        3.9820431058
  H        45.9377378014       30.3415250077        5.3114247904
  H        43.6826687325       27.3782379535        3.1575964209
  H        42.5998573628       29.1901278888        1.8150143298
  H        44.2308830939       29.4369670015        6.7739965943
  H        14.8513268181        8.5461754947        3.3684498350
  H        44.9003209401       32.2340119517       11.9271170059
  H        46.0252597166       30.4130186343       10.6476321682
  H        43.7631630897       27.4840598194       12.8398746778
  H        42.6453319741       29.3177797890       14.1189389204
  H        44.2689673213       29.4706859771        9.2131035869
  H        35.0712672030       26.6233086763       12.6316408800
  H        36.6052328817       35.1340385296        0.1857551156
  H        16.1433924741        3.0131276143       11.8995671107
  H        14.9738486129        4.8564962879       10.6837601630
  H        17.3970062592        7.7473087762       12.7494004432
  H        18.5441056759        5.8933642747       13.9770072489
  H        16.7650396274        5.7557671704        9.2142412341
  H        36.2787591423       34.4826131031       14.2679965569
  H        36.3810486105       34.2091341855        1.5048394741
  H        40.5806909724       33.2031767500       13.1486024034
  H        17.4710255038        1.9474424915       15.9691316314
  H        28.7722078480       18.9273439434        4.3518771593
  H        28.9311709291       18.3115797472       11.8776128427
  H        31.7973413588       15.8640182859       11.5267083284
  H        31.8653520256       15.8567853832        4.5630562615
  H        28.5782469627       17.2877666019        6.8928291810
  H        29.9272811166       15.1056154233        6.3920258900
  H        30.3093940237       19.9442577717       10.1328877394
  H        32.8228632894       17.4122402975        9.4891289590
  H        18.8534100663        0.8688572918        4.3404444764
  H        40.5280206916       35.2286707516       11.9468291324
  H        42.3246064078       34.4192085442       11.5848914051
  H        22.0876938955        0.6924800403        4.3566322709
  H        11.5970110593       18.7131463003        4.3873768646
  H        52.2646404205       18.4308795790       11.6720887187
  H        49.2550969937       16.4765490027       11.5791076531
  H        10.1506888629       15.7980677397        4.2977530232
  H        50.8496770193       17.6923862259       11.9492005618
  H        10.0463375155       17.3944637473        4.0570894146
  H        20.2148123552        0.0022946852        4.0470717545
  H        39.1838580990       36.1243915923       11.6811972102
 Ni        30.9843475954       17.8881988705       10.9095091509
 Ni        31.2441100940       16.3318670883        8.0799099806
 Ni        29.9290636044       18.7507358012        8.0763592924
 Ni        30.0633624122       17.2527950655        5.1662427274
  O        10.6498174048       14.3651840434       13.4807498090
  O        12.6131029641       14.6575781727       14.5787591617
  O        49.1478724012       16.8460137685       15.9846259493
  O        50.3502654153       20.9357560516       13.6429993504
  O        48.3485533641       20.5932699163       14.6608250509
  O        11.0513179056       17.0539657602       14.4954681401
  O        50.3209577392       20.8816222027        2.4118844750
  O        48.3467206381       20.5866854739        1.3321632914
  O        49.5436187343       18.2484331757        2.0733086344
  O        12.3588823457       18.6245220097        0.0047578688
  O        48.6932088985       14.1486843472       14.7461763648
  O         8.2099340993       14.2103836304        1.3275618538
  O        10.7353956804       14.5067666318        2.6694309306
  O        12.5717858175       14.5828890802        1.3335515759
  O        22.8447289110        2.0432218608       13.4818515534
  O        21.6066115713        3.5929720810       14.5835711458
  O        42.0582760505       34.1375742781       15.9739769269
  O        37.9818926415       33.1384412728       13.5675596883
  O        39.2182483717       31.5763466802       14.6617736970
  O        20.3086045165        1.0399867888       14.4971225768
  O        38.0243712649       33.1851432403        2.4205502289
  O        39.2188479984       31.5833687553        1.3318743408
  O        40.6522857820       33.7694099424        2.0654071237
  O        18.2556899633        1.3762471088        0.0019306280
  O        44.6221992463       35.1005753149       14.7536863051
  O        24.2053946291        0.0000442721        1.3258689752
  O        22.7532772885        2.0578885575        2.5890255185
  O        21.6250739078        3.5967031741        1.3488455012
  O        27.4977049423       18.7515640529       13.4887118980
  O        26.7629063593       16.9347585194       14.6476012527
  O        30.6651176417       19.4057294201        0.0745600691
  O        33.5423844887       16.3395207797       13.5841224449
  O        34.2735550490       18.1692171236       14.7271585810
  O        29.5721608651       17.0684236781       14.5729629775
  O        33.5581414773       16.3399381224        2.4203822831
  O        34.3015084564       18.2410637141        1.4124799689
  O        31.6502152804       18.3192383571        2.1521183024
  O        30.3239568297       15.1604058414        0.0833897599
  O        28.5533264150       21.0359923459       14.8988773339
  O        28.5142513117       20.9544740773        1.4179471282
  O        27.4560601358       18.6800266834        2.6635835292
  O        26.6935325651       16.9308389463        1.4176652298
  O        13.1487138072       18.6929842514        2.5925952826
  O        13.9192654655       16.9161189010        1.4100039679
  O        50.5957655336       19.3501615917        0.0253553980
  O        47.6836115129       16.3268794188        2.4221512608
  O        46.9510925543       18.1756516064        1.3301103658
  O        11.0696359135       17.0156166254        1.4947455073
  O        47.6745980562       16.3360928403       13.6474467888
  O        46.9254090664       18.2359795948       14.6583538455
  O        49.5682899713       18.3176985621       13.9770571066
  O        10.3185200101       15.1002236677        0.0021517218
  O        52.6707482490       21.0278645825        1.2469311755
  O        12.1468402212       20.8910826559       14.6680645682
  O        13.1087768333       18.6135916142       13.3202958913
  O        13.9576505611       16.9870908608       14.6601059210
  O        29.9984693671       14.4330543427        2.6674788520
  O        28.0758798715       14.6589092833        1.4872968036
  O        32.1371416699       16.8600292506        0.0756519018
  O        30.9608467871       20.9421548589        2.4231327813
  O        32.9429278038       20.6069482337        1.3466688922
  O        29.5665211856       17.0734566224        1.5782811161
  O        30.8710492163       20.9413750281       13.6539571044
  O        32.8771801568       20.5897176514       14.6633783028
  O        31.6551783322       18.3069318267       13.9961330962
  O        28.2929552156       18.6784753783        0.0811964185
  O        32.4912380038       14.2119609644        1.3302361697
  O        32.4053062555       14.2248892026       14.8118045394
  O        29.9210341652       14.4407019844       13.4850397427
  O        28.0393954253       14.5883008368       14.7448778567
  O        17.8892658092        1.9666991284        2.6679172253
  O        18.9563289718        3.5271948300        1.4130415661
  O        39.1686103560       34.1388173692        0.0023858187
  O        43.2802235070       33.0589905897        2.3368666465
  O        42.0345683493       31.5064281448        1.2467814737
  O        20.3177610889        1.0369055569        1.4850633490
  O        43.2760452103       33.1825372118       13.5697916739
  O        42.0052665865       31.5840894079       14.5778965336
  O        40.5792170111       33.7752919172       13.9311296204
  O        22.3675032200        1.3849073657        0.0030559749
  O        36.6728514274       35.0997705533        1.2384346443
  O        16.4456590294        0.0643966507       14.6632331130
  O        17.9364845711        2.0434936689       13.3212764879
  O        18.9192141005        3.5931881596       14.6608654913
  O        29.7464444132       18.8209835284       12.0735144406
  O        29.6956281985       18.7697743824        4.0680656958
  O        31.2072602752       16.4103612296       12.0832932627
  O        31.2967219032       16.4301558007        3.9977857562
  O        32.0724122979       16.8425302140        9.7363993276
  O        30.5019174929       15.8867242631        6.4123758293
  O        31.5518467657       18.1675997943        7.3340133194
  O        30.8427882888       19.2764602751        9.6573789656
  O        28.9733394107       18.0917464468        6.5000823291
  O        39.4567310867       35.2437380020       11.9968973871
  O        19.1413778640        0.0044429240        3.9956242679
  O        41.9692688124       35.1722833673       12.0820281883
  O        21.6913535501       -0.0690352577        3.9010462716
  O        51.3649480070       18.6142356365       12.0003557266
  O        10.7511648265       18.7472349976        3.9099336066
  O        50.0794003715       16.4128703599       12.0866776771
  O         9.5248684864       16.4829875901        3.9962972476
 Zr         9.2960265295       16.0527223130       14.1772209362
 Zr        49.8361023180       16.0065896100        1.7517146797
 Zr        22.0735030523        0.0304128043       14.1838063490
 Zr        42.4611727492       35.1540437639        1.8062558406
 Zr        29.6060191031       19.1168051236       14.2779113978
 Zr        29.5874013688       19.1649107023        1.8649159076
 Zr        11.0372948979       19.0521087785        1.8326080697
 Zr        11.0433191008       19.1548662600       14.2460975501
 Zr        31.3454925473       16.0934720196        1.8758003418
 Zr        31.3850107526       16.0367924307       14.2744105476
 Zr        18.6014017907       -0.0011439354        1.7683815971
 Zr        18.5067893691       -0.0071250351       14.2088022851
 Zr        12.3012896859       16.3233325983       15.9849764985
 Zr        48.6154587699       18.8329060433        0.0151755719
 Zr        20.3162509324        2.4743188530       15.9855024628
 Zr        40.6438096494       32.6875117258       15.9733396422
 Zr        28.3489785018       16.3360476828        0.0856468493
 Zr        32.6318410506       18.8422185979        0.0568095640
  H        32.2031027993       18.7112349297        7.8153449066
  O        28.3435237896       16.1305961466       10.9964014890
  H        29.2414052870       15.9616354813       11.3584543590
  H        27.7545003591       15.6461710010       11.5974669328
  O        33.4058353740       15.0999074161        5.6655548443
  H        32.7783545698       15.1319738147        6.4202074190
  H        33.8529144006       15.9618332092        5.7080555440
  O        28.1749956380       19.4810221162        8.7517313839
  H        27.6285505806       19.4643414304        7.9409763233
  H        27.7943780812       18.8085750934        9.3519158045
  O        30.4559943258       20.8138277491        6.1525880949
  H        30.3598993181       20.1349499918        5.4477383784
  H        31.2417702323       21.3161672345        5.8851703418
  H        30.9958330350       14.9911271936        8.5922605751
