     580
 i =      233, E =     -4813.3880644006
  C        11.8583594630       14.0535586162       13.7364742679
  C        12.4558291852       12.8904498711       13.0182402924
  C        11.7042347900       12.1718301855       12.0762793488
  C        12.2805562210       11.1095896889       11.3839045071
  C        13.6209734935       10.7394229511       11.6119401475
  C        14.3539542208       11.4425447066       12.5858897198
  C        13.7811056031       12.5075218241       13.2774330588
  C        14.2605931607        9.6488250799       10.8385206935
  C        14.2560876641        9.6568387730        9.4168117548
  C        13.7426629994       10.7588114702        8.6628624401
  C        49.1265725130       21.2332374358       13.8745889823
  C        48.5498028921       22.4010342364       13.1474065507
  C        49.3000027827       23.0687324043       12.1667901030
  C        48.7330414764       24.1078388157       11.4335899299
  C        47.4023082350       24.5090456763       11.6618530739
  C        46.6711193668       23.8597298684       12.6748936141
  C        47.2335992710       22.8148348676       13.4042373828
  C        46.7721884880       25.5868464716       10.8646195862
  C        46.7613117349       25.5573204816        9.4428608660
  C        47.2611372103       24.4421612155        8.6993940786
  C        14.8602539469        8.5706291966        8.7035357018
  C        14.8914514123        8.5968931251       11.5151438602
  C        49.1129926402       21.2034053572        2.1504151421
  C        48.5275884499       22.3646456026        2.8776728934
  C        49.2670195504       23.0258636703        3.8701066373
  C        48.6906188436       24.0603559801        4.6015848073
  C        47.3599576693       24.4565701357        4.3638047553
  C        46.6392288012       23.8110084258        3.3409367735
  C        47.2128378898       22.7751218243        2.6091624121
  C        46.7216122334       25.5316369336        5.1547947838
  C        46.7334849299       25.5281116869        6.5764894298
  C        47.2488655715       24.4288545177        7.3328425616
  C        40.6230520452       17.1245155036        7.3102960781
  C        40.6382983185       17.1293534189        4.5007506373
  C        11.8827482026       14.0864881169        2.2904751764
  C        12.4719837316       12.9104393303        2.9945455742
  C        11.7145349891       12.1775763870        3.9209663567
  C        12.2810267070       11.0951020423        4.5894617258
  C        13.6196864414       10.7209976486        4.3573603466
  C        14.3575172086       11.4360821232        3.3960719208
  C        13.7921592014       12.5172403304        2.7233054058
  C        14.2534071662        9.6243899775        5.1278736790
  C        14.2522402604        9.6444438175        6.5497222733
  C        13.7421632350       10.7532876910        7.2968157086
  C        22.5130356908        3.2442464152       13.7486609980
  C        23.2306217363        4.3486941893       13.0507287410
  C        24.2278935285        4.0667862517       12.1053605983
  C        24.8578117642        5.1050617071       11.4240622809
  C        24.5063826593        6.4474937244       11.6682828579
  C        23.5376738691        6.7209647697       12.6510644515
  C        22.9029898760        5.6844541969       13.3306749158
  C        25.1136521585        7.5529101748       10.8921306254
  C        25.0809857243        7.5472808600        9.4707948658
  C        24.3743105523        6.5498615502        8.7264691563
  C        38.3028133797       31.9296517441       13.8440432159
  C        37.5734915235       30.8398144777       13.1346462262
  C        36.6149280176       31.1429940951       12.1557390706
  C        35.9984027819       30.1221234840       11.4376631658
  C        36.3255917089       28.7731392766       11.6772744529
  C        37.2543789756       28.4774169221       12.6927360894
  C        37.8751774784       29.4970159213       13.4094311683
  C        35.7239895532       27.6809312156       10.8801979789
  C        35.7564146219       27.6951088353        9.4589076661
  C        36.4633824118       28.6968441044        8.7218533620
  C        25.7032769178        8.6168074542        8.7497136199
  C        25.7161190029        8.6253508391       11.5616446819
  C        38.3289651584       31.9620189623        2.1614629642
  C        37.6079840653       30.8883667618        2.9035522950
  C        36.6799909067       31.1963868453        3.9100650504
  C        36.0707947139       30.1773478845        4.6396711016
  C        36.3752522291       28.8249111568        4.3861611223
  C        37.2809066122       28.5268794775        3.3496210943
  C        37.8922787170       29.5424043273        2.6213597441
  C        35.7680885287       27.7252136807        5.1702279633
  C        35.7790778101       27.7176094344        6.5922253949
  C        36.4736955587       28.7079735728        7.3553303863
  C        46.1356828807       26.6208741528        7.2865942735
  C        46.0876317941       26.5799438569        4.4787021431
  C        22.4598040874        3.2558323461        2.2634543645
  C        23.1512744637        4.3648315753        2.9881638107
  C        24.1520583874        4.0794162453        3.9305300804
  C        24.7778286247        5.1099382094        4.6278388216
  C        24.4230008529        6.4555656156        4.4052575585
  C        23.4450622769        6.7342120090        3.4316328903
  C        22.8145744552        5.7039353352        2.7349024252
  C        25.0536915791        7.5538798790        5.1790448549
  C        25.0508918135        7.5469855436        6.6019226333
  C        24.3583823226        6.5505247433        7.3598780822
  C        26.6170908000       17.8601179498       13.7790332854
  C        25.3120703148       17.9089469905       13.0522169647
  C        25.0442333269       18.9205821984       12.1154783010
  C        23.8328336130       18.9403004534       11.4261130706
  C        22.8512416775       17.9541631073       11.6547200483
  C        23.1149489204       16.9658706954       12.6218421026
  C        24.3288837396       16.9390323579       13.3067600990
  C        21.5776745059       17.9414146280       10.8905984779
  C        21.5784813363       17.9246316340        9.4682832657
  C        22.7848250800       17.8096776766        8.7076229360
  C        34.4215035243       17.2229035490       13.8761052485
  C        35.7172756131       17.1656698615       13.1423448500
  C        35.9141126462       16.2120231719       12.1314094806
  C        37.1002846890       16.1931288234       11.4039045329
  C        38.1202167431       17.1296592690       11.6630361838
  C        37.9259968940       18.0620758606       12.7003467267
  C        36.7389400549       18.0840869425       13.4284771820
  C        39.3744897557       17.1401808035       10.8767946104
  C        39.3683223388       17.1537200202        9.4543835917
  C        38.1610191570       17.2725533761        8.6961118738
  C        20.3317200595       17.9378109009        8.7601001587
  C        20.3531607596       17.9392251488       11.5736112619
  C        34.4506040876       17.2347756460        2.1855976754
  C        35.7546229844       17.1316674909        2.8991705293
  C        35.9602726779       16.1590581501        3.8896081134
  C        37.1496117018       16.1431499566        4.6146601878
  C        38.1605488643       17.0912861651        4.3684680218
  C        37.9629705790       18.0326900926        3.3399049769
  C        36.7729425699       18.0583794557        2.6197000737
  C        39.4070107796       17.1174414140        5.1656733721
  C        39.3851586073       17.1398922272        6.5872879697
  C        38.1684313173       17.2617564159        7.3295417740
  C        35.1485295085       26.6383507038        7.2961739532
  C        35.1772379423       26.6550423300        4.4872319946
  C        26.5710214789       17.8237022247        2.3306552252
  C        25.2564592559       17.8727052221        3.0351681552
  C        24.9833450819       18.8908266423        3.9611276976
  C        23.7654358273       18.9172784777        4.6345221578
  C        22.7910087276       17.9257498290        4.4047098328
  C        23.0574511691       16.9323288957        3.4451524649
  C        24.2762762786       16.9037162819        2.7703034058
  C        21.5277272406       17.9088689510        5.1785835676
  C        21.5529093898       17.9060547969        6.5999683080
  C        22.7727248067       17.8003339481        7.3413257353
  C        14.0458561938       17.8284523965        2.2937347551
  C        15.3505180252       17.8848014856        3.0196191008
  C        15.6076116605       18.8883445290        3.9665532065
  C        16.8166865642       18.9088752938        4.6593270798
  C        17.8024895456       17.9286373592        4.4268432117
  C        17.5500296341       16.9488666644        3.4482032146
  C        16.3403053720       16.9238150521        2.7571824202
  C        19.0719211185       17.9126355981        5.1950951391
  C        19.0714506584       17.9116352335        6.6175100747
  C        17.8647703347       17.8103751718        7.3790471019
  C        46.8038680352       17.2172837647        2.1624565477
  C        45.5123755322       17.1523112140        2.9035009130
  C        45.3082336842       16.1779480830        3.8928573515
  C        44.1247322117       16.1581783634        4.6257238614
  C        43.1155427366       17.1124659089        4.3910559057
  C        43.3163014786       18.0648117860        3.3735777955
  C        44.5006775770       18.0890129702        2.6419655793
  C        41.8624068551       17.1243820394        5.1791035753
  C        41.8693007592       17.1349854185        6.6008892481
  C        43.0784225948       17.2383403641        7.3581075477
  C        20.3183846276       17.9275556090        7.3253503818
  C        20.2957726920       17.8926993250        4.5123070556
  C        46.7840060490       17.2332531118       13.8803042700
  C        45.4827208909       17.1329045086       13.1599392588
  C        45.2652946104       16.1422994979       12.1899023486
  C        44.0780267510       16.1206313320       11.4617886716
  C        43.0769425876       17.0862839768       11.6854605049
  C        43.2854102117       18.0468998063       12.6930620151
  C        44.4737578551       18.0752978245       13.4162449596
  C        41.8296449154       17.1117764448       10.8890538330
  C        41.8525757078       17.1278739120        9.4677135542
  C        43.0706395241       17.2319506184        8.7248987867
  C        46.1534379931       26.6372888954        8.7211356041
  C        46.1622377201       26.6559355031       11.5307789070
  C        14.0451728046       17.8312120488       13.7032979015
  C        15.3665964221       17.9048025574       13.0115883744
  C        15.6410292352       18.9215401509       12.0848278325
  C        16.8700858762       18.9589006016       11.4297754632
  C        17.8526035234       17.9787673899       11.6759157514
  C        17.5848244709       16.9902989502       12.6403403853
  C        16.3576731610       16.9525052011       13.2987801426
  C        19.1203366739       17.9557075643       10.9069863225
  C        19.0967483582       17.9326562600        9.4854021463
  C        17.8770529121       17.8198249812        8.7450201693
  C        28.8038344871       14.0864050044        2.3929815939
  C        28.1891861592       12.9157841683        3.0816302774
  C        28.9171949679       12.1646494749        4.0167034365
  C        28.3159348772       11.0922040393        4.6706306378
  C        26.9743533498       10.7456880019        4.4116333054
  C        26.2685256670       11.4760280824        3.4387838385
  C        26.8665618533       12.5499258640        2.7844783039
  C        26.3063986754        9.6659273576        5.1738787111
  C        26.3007944247        9.6905339680        6.5948941429
  C        26.8100973380       10.8014119930        7.3395326275
  C        32.1811850535       21.2408059735        2.1505380028
  C        32.7739879320       22.4071024743        2.8673187644
  C        32.0309563748       23.0762029751        3.8519906315
  C        32.6023434305       24.1145900089        4.5802464024
  C        33.9330593938       24.5112669561        4.3457646905
  C        34.6585899076       23.8603771707        3.3299860130
  C        34.0895630508       22.8168150132        2.6029431684
  C        34.5632467976       25.5847279014        5.1468887867
  C        34.5562178650       25.5545264775        6.5686327985
  C        34.0483169909       24.4388815759        7.3069072128
  C        25.6921720656        8.6130647091        7.3150752089
  C        25.6664389492        8.6167878042        4.5015382919
  C        32.1034705370       21.2266643878       13.8746130745
  C        32.6930489563       22.3770636988       13.1304515235
  C        31.9569332513       23.0404261346       12.1367120395
  C        32.5380159092       24.0697919864       11.4000381482
  C        33.8682195788       24.4663201150       11.6403769266
  C        34.5868119891       23.8168280356       12.6622014866
  C        34.0110488366       22.7812587932       13.3931667701
  C        34.5095426536       25.5470763932       10.8565838932
  C        34.5275908883       25.5362713067        9.4348378090
  C        34.0332058625       24.4306745204        8.6735856855
  C        40.6143532610       17.1262156142        8.7450318781
  C        40.5990645059       17.1351278926       11.5551081824
  C        28.7505781500       14.0679948107       13.8136333604
  C        28.1432045431       12.9194820007       13.0774977046
  C        28.8761162439       12.2332383768       12.0971355709
  C        28.2976325781       11.1752397402       11.3999398523
  C        26.9695962208       10.7783420838       11.6560785496
  C        26.2543267508       11.4523447332       12.6637499638
  C        26.8315512864       12.5098171692       13.3638959282
  C        26.3270802839        9.6882745322       10.8834146925
  C        26.3117930745        9.7026829614        9.4614559851
  C        26.8125301572       10.8089504749        8.7054078334
  C        18.1354637205        3.1809806965        2.3222548929
  C        17.4061563082        4.2782261809        3.0209350855
  C        16.3905336271        3.9998387209        3.9485375334
  C        15.7427759229        5.0398057211        4.6120310663
  C        16.0945733877        6.3835348754        4.3722609773
  C        17.0838237608        6.6530650846        3.4083665442
  C        17.7329682083        5.6157469944        2.7433242362
  C        15.4701752338        7.4912209774        5.1352638657
  C        15.4856239094        7.4906627767        6.5569731778
  C        16.1873773832        6.4971831292        7.3101384082
  C        42.9459516414       31.8594861579        2.0780379091
  C        43.6463038599       30.7718557901        2.8219262828
  C        44.5919598978       31.0931449259        3.8079046996
  C        45.1976971357       30.0875693764        4.5554912363
  C        44.8710985198       28.7345155623        4.3407659685
  C        43.9451359916       28.4202047259        3.3276630541
  C        43.3363077924       29.4253703464        2.5796732115
  C        45.4886691462       27.6552214742        5.1439592000
  C        45.4930501829       27.6810178675        6.5656444678
  C        44.8061693071       28.6891916449        7.3122806362
  C        14.8564949356        8.5630843461        7.2693041253
  C        14.8746423757        8.5628233615        4.4566437259
  C        42.9465112348       31.9614928890       13.8038511998
  C        43.6917511402       30.8854127474       13.0904551652
  C        44.6563937264       31.1913487554       12.1181921907
  C        45.2779373982       30.1717720317       11.4004899245
  C        44.9541139721       28.8214342918       11.6380120235
  C        44.0205757038       28.5237490195       12.6487447617
  C        43.3922974150       29.5404928345       13.3609329091
  C        45.5631238862       27.7240497380       10.8527384049
  C        45.5336212986       27.7175224622        9.4314374595
  C        44.8274508483       28.7078409089        8.6784617714
  C        35.1355948392       26.6279012535        8.7308302263
  C        35.1190020615       26.6056920120       11.5405919163
  C        18.1486089860        3.2469906757       13.7015124389
  C        17.4299900870        4.3438624841       12.9922368519
  C        16.4148468460        4.0525862905       12.0686005319
  C        15.7665062238        5.0832001470       11.3932074990
  C        16.1210927541        6.4284398616       11.6160018963
  C        17.1124217688        6.7118312274       12.5733039867
  C        17.7601436199        5.6829300193       13.2530500901
  C        15.4905974930        7.5241429054       10.8435539200
  C        15.4965931387        7.5075901182        9.4224190054
  C        16.1936248465        6.5060548948        8.6757429964
  H        10.6722163618       12.4662298796       11.8990081365
  H        11.6942398402       10.5513505578       10.6571974528
  H        15.3907903542       11.1674756558       12.7680235264
  H        14.3503631024       13.0703640276       14.0133188789
  H        13.3752650332       11.6307807334        9.1961582959
  H        50.3228374538       22.7489679798       11.9823221262
  H        49.3195613872       24.6233872292       10.6762341951
  H        45.6413960055       24.1599870623       12.8576088375
  H        46.6623283219       22.2891317606       14.1658204485
  H        47.6293812945       23.5756655435        9.2410937517
  H        14.8715745793        8.5880042158       12.6034471647
  H        50.2872588866       22.7034264475        4.0646425553
  H        49.2690807294       24.5761970247        5.3647731230
  H        45.6095206219       24.1075700084        3.1524596819
  H        46.6516722623       22.2523447628        1.8382644915
  H        47.6073643752       23.5516248991        6.8019328600
  H        40.6441046895       17.0876063290        3.4132368870
  H        48.6866089065       14.0949069594       15.7948138402
  H        10.6811560234       12.4668905733        4.0985513848
  H        11.6891751624       10.5249403046        5.3022999237
  H        15.3927519598       11.1577155042        3.2097553346
  H        14.3643015612       13.0862041044        1.9943035735
  H        13.3749346998       11.6217233994        6.7581688419
  H        47.9301230735       14.2173383562        1.7159995239
  H        47.7795858945       14.3717771727       14.4894148131
  H        49.0821906601       18.5518365548        2.8719402583
  H        10.4152309680       14.1343510278        0.0037422534
  H        24.4867470241        3.0276757141       11.9145471197
  H        25.6309506185        4.8861487278       10.6907293167
  H        23.2592272773        7.7545355275       12.8460102929
  H        22.1327341491        5.8862749948       14.0710386972
  H        23.8139220381        5.7935561027        9.2683012270
  H        36.3782116873       32.1860988688       11.9596928939
  H        35.2548673763       30.3604466698       10.6802823595
  H        37.5145583265       27.4384736740       12.8844507598
  H        38.6182196106       29.2768869596       14.1722536796
  H        37.0289676456       29.4461552226        9.2680194698
  H        25.7553720630        8.6066574152       12.6492898355
  H        36.4571107482       32.2404648404        4.1180500329
  H        35.3458576471       30.4217330506        5.4129534226
  H        37.5281278246       27.4868288502        3.1473203907
  H        38.6141615977       29.3172808915        1.8401102017
  H        37.0481802205       29.4654280645        6.8299058245
  H        46.1087825349       26.5871303605        3.3906596932
  H        44.6683911039       35.1161822741       15.8087675197
  H        24.4305771421        3.0414128984        4.0977882319
  H        25.5580063006        4.8816544669        5.3508658037
  H        23.1595374903        7.7685059525        3.2507773385
  H        22.0438496185        5.9161810493        1.9975280168
  H        23.7849757658        5.7954544612        6.8299706217
  H        44.9541958677       34.3906865907        1.7004228086
  H        44.9021235079       34.2069116571       14.4854486215
  H        40.6661386474       33.2090676258        2.8582373107
  H        23.1505476781        1.9577526465        0.0107500141
  H        25.7931594512       19.6923834515       11.9497060510
  H        23.6295454596       19.7307461803       10.7066163160
  H        22.3688100454       16.1957194806       12.8067672662
  H        24.5432645125       16.1618220199       14.0367038588
  H        23.7260960223       17.6963247875        9.2375089785
  H        35.1204545772       15.4992358659       11.9213123446
  H        37.2504345763       15.4452477979       10.6284509939
  H        38.7050642656       18.7932988647       12.9057953609
  H        36.5739217657       18.8187040376       14.2132083824
  H        37.2211858205       17.3992480819        9.2255233490
  H        20.3600341580       17.9759171496       12.6615977560
  H        35.1778409945       15.4383621893        4.1149380543
  H        37.2994826774       15.3901319782        5.3852411273
  H        38.7371722820       18.7711432417        3.1423100332
  H        36.5983995339       18.8062583306        1.8500895581
  H        37.2341420138       17.3749244886        6.7870367052
  H        35.1481336746       26.6819802298        3.3995965410
  H        28.5104805032       21.0862971383       15.9689795985
  H        25.7370503641       19.6552956626        4.1343984027
  H        23.5531336079       19.7104744975        5.3481463278
  H        22.3129534960       16.1601727278        3.2622851205
  H        24.4982945988       16.1249304168        2.0445855433
  H        23.7047771747       17.6804672564        6.7968730424
  H        29.0033053032       21.7210525289        1.7677792937
  H        29.1427893929       21.7563480595       14.6086331207
  H        32.1518437562       18.5759786724        2.9552643752
  H        27.4101039097       19.0838063083        0.0930788549
  H        14.8494204981       19.6477682033        4.1442593588
  H        17.0124855631       19.6933898801        5.3871596377
  H        18.3006195125       16.1838598829        3.2601757401
  H        16.1333512045       16.1543465087        2.0171932598
  H        16.9225794591       17.6921193599        6.8517721658
  H        46.0940649010       15.4501482700        4.0808248730
  H        43.9669507048       15.3957350844        5.3853651745
  H        42.5444384724       18.8087285906        3.1875322642
  H        44.6722831904       18.8392201952        1.8736387048
  H        44.0192856493       17.3533324168        6.8275502202
  H        20.2891739094       17.9184060337        3.4240804904
  H        46.0419606404       15.4027696429       12.0085586734
  H        43.9130578747       15.3510220806       10.7108685555
  H        42.5185344997       18.7973276836       12.8734646518
  H        44.6541219950       18.8363989589       14.1713986758
  H        44.0055823537       17.3407641849        9.2669265608
  H        46.1988716258       26.6823131074       12.6182354041
  H        52.7407911995       21.0624429538        0.1997415396
  H        14.8811674980       19.6763126712       11.8944151051
  H        17.0815814131       19.7504599793       10.7140591162
  H        18.3342016062       16.2265054022       12.8377928045
  H        16.1356687540       16.1766367165       14.0274741981
  H        16.9441390016       17.7088167654        9.2894996291
  H        52.3213237781       21.6728127357       14.2895238234
  H        52.0123944016       21.7013770379        1.5006915468
  H        49.0664498257       18.6074844142       13.1990703031
  H        13.2469548546       19.0167484542       15.9720061075
  H        29.9529868649       12.4318403346        4.2150832586
  H        28.8814697527       10.5086691509        5.3939588514
  H        25.2322663587       11.2171598474        3.2312913238
  H        26.3198440609       13.1350822372        2.0490797554
  H        27.1731458719       11.6695963911        6.7978406303
  H        31.0102046077       22.7550001628        4.0432047950
  H        32.0217076808       24.6322334628        5.3404980220
  H        35.6888656419       24.1568128024        3.1440240137
  H        34.6561037951       22.2882449586        1.8397404205
  H        33.6933955938       23.5684358651        6.7624097511
  H        25.6922361020        8.5986712352        3.4134081038
  H        30.9315759448       22.7295338694       11.9498085686
  H        31.9619121439       24.5847718350       10.6343953781
  H        35.6166681508       24.1118239861       12.8524720578
  H        34.5715177777       22.2566259260       14.1633725680
  H        33.6673860437       23.5538631717        9.2006635527
  H        40.5929681429       17.0941088503       12.6426817873
  H        32.5256339536       14.1517363678        0.2495642926
  H        29.8998985087       12.5425047623       11.8993254661
  H        28.8747759602       10.6386169600       10.6500114820
  H        25.2270434732       11.1583126031       12.8690875756
  H        26.2758512450       13.0449013983       14.1302612936
  H        27.1764396954       11.6832145171        9.2372382558
  H        33.3021597860       14.2184459130       14.4366394875
  H        33.4039315005       14.3487486594        1.6365595301
  H        32.1008504102       18.5354403858       13.1565713909
  H        30.2332511139       14.1920564176        0.0670798460
  H        16.1185744176        2.9633172109        4.1349901105
  H        14.9533802171        4.8204032845        5.3277444111
  H        17.3661051336        7.6859602016        3.2151523190
  H        18.5149106833        5.8183891481        2.0153704300
  H        16.7540446916        5.7399233165        6.7766399825
  H        44.8284182303       32.1402009127        3.9819923249
  H        45.9376885740       30.3412974638        5.3113214453
  H        43.6823032050       27.3781496608        3.1576571806
  H        42.5996452664       29.1899973509        1.8150686393
  H        44.2308936603       29.4370262204        6.7739897599
  H        14.8506883770        8.5458897119        3.3684292675
  H        44.9000329007       32.2340176714       11.9268077937
  H        46.0249077978       30.4130130321       10.6473230021
  H        43.7635756780       27.4840177745       12.8402610495
  H        42.6458239523       29.3176216108       14.1193778168
  H        44.2690595979       29.4708262025        9.2130191730
  H        35.0755536447       26.6185363361       12.6280193851
  H        36.6052138404       35.1340077268        0.1857728565
  H        16.1437905542        3.0130040211       11.8988710239
  H        14.9741986204        4.8563603610       10.6830986100
  H        17.3958533388        7.7473095173       12.7502500045
  H        18.5429995022        5.8933606335       13.9778419768
  H        16.7651233784        5.7558842016        9.2142111807
  H        36.2787681872       34.4824007675       14.2680172023
  H        36.3813458072       34.2089904859        1.5047478824
  H        40.5806519389       33.2027891964       13.1485550988
  H        17.4708288172        1.9473942020       15.9690240231
  H        28.7895197227       18.9727582712        4.3507270207
  H        28.8845357212       18.4173687107       11.8839802941
  H        31.6500214568       15.7557188496       11.5161559048
  H        31.0142953642       15.3845463077        4.3194292373
  H        28.6255108647       17.1508414502        6.9516664322
  H        29.6641804882       14.9424177867        6.8310912806
  H        30.5610589392       20.0580398201       10.1196811636
  H        32.6595703964       17.7421755286        9.3100470576
  H        18.8535612324        0.8690360559        4.3403204441
  H        40.5279894499       35.2287049549       11.9468855006
  H        42.3242152610       34.4187932188       11.5851332855
  H        22.0877666933        0.6918974117        4.3568138766
  H        11.5970289649       18.7130310774        4.3873255098
  H        52.2645806322       18.4305938133       11.6724038556
  H        49.2550535747       16.4767383505       11.5792903842
  H        10.1501874756       15.7980831277        4.2979798841
  H        50.8493981578       17.6923264857       11.9493000175
  H        10.0459633453       17.3943458614        4.0571499367
  H        20.2149210359        0.0022114970        4.0470676073
  H        39.1837921465       36.1244619730       11.6814146298
 Ni        30.9871603462       17.8923732065       10.9089735729
 Ni        31.1119169052       16.3520033679        8.2399713607
 Ni        30.1399009258       18.8201437512        7.9906347673
 Ni        30.2296126085       17.3523628093        5.2513866571
  O        10.6497672598       14.3651746915       13.4806890458
  O        12.6131031007       14.6575644154       14.5787276294
  O        49.1479184320       16.8460467287       15.9846133446
  O        50.3502090530       20.9359681595       13.6430668940
  O        48.3485227466       20.5933517036       14.6608466238
  O        11.0511630472       17.0539884509       14.4953913551
  O        50.3209859173       20.8816907994        2.4118755259
  O        48.3467655169       20.5867647090        1.3321473149
  O        49.5435679036       18.2484549683        2.0733648363
  O        12.3587920649       18.6244312219        0.0047922481
  O        48.6931680080       14.1486894824       14.7461137482
  O         8.2098628223       14.2103335444        1.3276021411
  O        10.7353796648       14.5067623133        2.6694399146
  O        12.5717875060       14.5828830534        1.3335558135
  O        22.8445845549        2.0429207944       13.4821092818
  O        21.6058672359        3.5924425853       14.5843194058
  O        42.0582786284       34.1374433559       15.9739133080
  O        37.9817898728       33.1378676362       13.5674271213
  O        39.2181955318       31.5761873583       14.6616741362
  O        20.3084873220        1.0396487499       14.4969800696
  O        38.0246205208       33.1856792852        2.4203217754
  O        39.2191769191       31.5838022191        1.3314941537
  O        40.6522663619       33.7693628134        2.0653501020
  O        18.2554900724        1.3761962070        0.0018787506
  O        44.6222311032       35.1005362026       14.7536210749
  O        24.2053948616        0.0000351751        1.3259027977
  O        22.7529222104        2.0578668175        2.5890170032
  O        21.6243547182        3.5960172132        1.3475922649
  O        27.4991101380       18.7494406000       13.4846871028
  O        26.7594137777       16.9395047435       14.6505471922
  O        30.6677612948       19.4076743454        0.0758942425
  O        33.5436376801       16.3390966236       13.5858683572
  O        34.2726182528       18.1700978533       14.7268715973
  O        29.5729457697       17.0689239284       14.5755098833
  O        33.5596695243       16.3427257560        2.4192020769
  O        34.3006778122       18.2421266434        1.4108649524
  O        31.6513341077       18.3131249021        2.1665705902
  O        30.3245221554       15.1589506967        0.0865391632
  O        28.5531939217       21.0364884438       14.8976077123
  O        28.5142772919       20.9569941945        1.4174446997
  O        27.4614904261       18.6765099665        2.6681779753
  O        26.6946104510       16.9305675532        1.4182661880
  O        13.1489465240       18.6929599309        2.5926183867
  O        13.9194336086       16.9160743677        1.4099962137
  O        50.5956513518       19.3501780041        0.0254746701
  O        47.6835666644       16.3269836843        2.4222003551
  O        46.9518263755       18.1757130202        1.3296050385
  O        11.0695235191       17.0155917222        1.4948452868
  O        47.6745100986       16.3361184961       13.6472241094
  O        46.9263299602       18.2358914509       14.6588020793
  O        49.5681881239       18.3176894789       13.9770260316
  O        10.3184481971       15.1002675432        0.0021928665
  O        52.6707523928       21.0279079477        1.2469521103
  O        12.1467781411       20.8910833643       14.6680260775
  O        13.1085849221       18.6136424471       13.3202821886
  O        13.9576030381       16.9870220771       14.6601237448
  O        29.9896977173       14.4362914079        2.7290493095
  O        28.0877648769       14.6540393526        1.4980089699
  O        32.1357733553       16.8636374459        0.0675360509
  O        30.9656607380       20.9492671996        2.4175387948
  O        32.9464153895       20.6018557556        1.3447965012
  O        29.5681663488       17.0776293710        1.5821110651
  O        30.8715981296       20.9432074055       13.6544406784
  O        32.8773372014       20.5899128059       14.6624235796
  O        31.6545740247       18.3071320046       13.9918495331
  O        28.2928802138       18.6793322080        0.0815099105
  O        32.4900143525       14.2102821519        1.3281313885
  O        32.4054666182       14.2268072060       14.8118226370
  O        29.9227049459       14.4403252826       13.4868609519
  O        28.0403757633       14.5914430765       14.7466695541
  O        17.8892384979        1.9666486810        2.6679005569
  O        18.9562322864        3.5271587037        1.4130673776
  O        39.1686632262       34.1388076734        0.0023212800
  O        43.2802042186       33.0589673777        2.3368342348
  O        42.0345247954       31.5064411593        1.2467432750
  O        20.3177573606        1.0368526084        1.4852799512
  O        43.2760456681       33.1825263606       13.5698008945
  O        42.0052575305       31.5840897766       14.5778797797
  O        40.5791189444       33.7751663303       13.9308954670
  O        22.3673415689        1.3846398913        0.0030458600
  O        36.6727759356       35.0997714301        1.2384247709
  O        16.4455853363        0.0642778875       14.6631889162
  O        17.9364931699        2.0434104362       13.3212835752
  O        18.9190819983        3.5931778382       14.6608034375
  O        29.7491554533       18.8264927935       12.0748263501
  O        29.7334727401       18.9758706595        4.0885420649
  O        31.2107867154       16.4161232828       12.0816906552
  O        31.3032900420       16.2659855623        4.0068693400
  O        32.1430003394       16.9971353910        9.6753080059
  O        30.3431278421       15.6184470887        6.6752493089
  O        31.5386301261       17.8791934208        6.8341238437
  O        31.0451595318       19.3397191039        9.6719458459
  O        28.8454028586       18.0270852785        6.5842814053
  O        39.4567036307       35.2437418895       11.9968907316
  O        19.1414393112        0.0045479709        3.9956247812
  O        41.9692836077       35.1722536026       12.0819937291
  O        21.6911817646       -0.0693343107        3.9010041877
  O        51.3648721855       18.6142168244       12.0003873362
  O        10.7511560840       18.7473077923        3.9099888692
  O        50.0795113700       16.4128977614       12.0866449127
  O         9.5245161092       16.4830178991        3.9963284022
 Zr         9.2950305244       16.0527947128       14.1771654867
 Zr        49.8350519585       16.0066658619        1.7517539849
 Zr        22.0734566551        0.0298170575       14.1838212591
 Zr        42.4611516391       35.1534251404        1.8060765398
 Zr        29.6097630365       19.1168060165       14.2845535596
 Zr        29.5924902756       19.1774089801        1.8691977880
 Zr        11.0367264537       19.0520254656        1.8325306639
 Zr        11.0425679477       19.1548402882       14.2463802889
 Zr        31.3600916394       16.0949747886        1.8476682768
 Zr        31.3803502164       16.0340544265       14.2513405930
 Zr        18.6013652912       -0.0012340088        1.7684062007
 Zr        18.5066789612       -0.0075674176       14.2087206070
 Zr        12.3002837676       16.3234257220       15.9849714728
 Zr        48.6144070690       18.8326583328        0.0152233551
 Zr        20.3154164515        2.4735015483       15.9852682725
 Zr        40.6438567842       32.6871243166       15.9731639507
 Zr        28.3520214280       16.3381296358        0.0843952542
 Zr        32.6398495203       18.8430404124        0.0494989744
  H        32.4101870905       18.2826675293        6.6870668317
  O        33.4173375024       15.0971756621        5.6635972253
  H        32.7064935700       14.9236129892        6.3061550404
  H        32.9654050039       15.6798800847        5.0177840418
  O        28.1335807210       19.5648392254        8.6556988501
  H        27.8731793779       19.0388315183        7.8545364785
  H        27.7851517939       19.0831152515        9.4251032594
  O        30.2887049772       20.5117859552        6.5019530198
  H        30.1627416692       20.0695671762        5.6178354338
  H        29.5452935189       21.1316985294        6.5808173425
  H        30.4856858337       15.4053405357        9.1331281752
