     580
 i =      367, E =     -4813.3662701283
  C        11.8583725382       14.0535142941       13.7364705498
  C        12.4557805497       12.8903313872       13.0183839814
  C        11.7042313700       12.1718276824       12.0762880541
  C        12.2805411704       11.1095899128       11.3839047078
  C        13.6209197967       10.7393103463       11.6120354837
  C        14.3538298375       11.4422896557       12.5861524540
  C        13.7809966167       12.5072619695       13.2777088511
  C        14.2605958275        9.6487986755       10.8385434557
  C        14.2559824115        9.6567736910        9.4168285225
  C        13.7425341139       10.7587422755        8.6628825327
  C        49.1264731605       21.2333503736       13.8746184078
  C        48.5497068724       22.4011568674       13.1474835315
  C        49.2999153124       23.0688576850       12.1668672685
  C        48.7329672773       24.1079754995       11.4336766942
  C        47.4022323040       24.5091853669       11.6619259258
  C        46.6710388683       23.8598480332       12.6749548275
  C        47.2334869216       22.8149315425       13.4042898468
  C        46.7721002317       25.5869656045       10.8646707933
  C        46.7612409253       25.5574078600        9.4429105548
  C        47.2610947909       24.4422504025        8.6994564436
  C        14.8601965209        8.5705986433        8.7035341926
  C        14.8915215920        8.5968901104       11.5151559259
  C        49.1127900345       21.2034019993        2.1504380645
  C        48.5273532960       22.3645608775        2.8777430934
  C        49.2668598398       23.0258610784        3.8700740423
  C        48.6905020933       24.0603682059        4.6015559292
  C        47.3598128761       24.4565412135        4.3638720701
  C        46.6390167839       23.8109201000        3.3410867113
  C        47.2125786136       22.7750116052        2.6093046122
  C        46.7215190077       25.5316541247        5.1548355050
  C        46.7334509829       25.5281591545        6.5765256968
  C        47.2488148277       24.4289139610        7.3329034136
  C        40.6200296124       17.1167360899        7.3079749364
  C        40.6348786333       17.1201746132        4.4982872364
  C        11.8826722545       14.0864345979        2.2904520138
  C        12.4718189605       12.9103239178        2.9944216330
  C        11.7144880895       12.1777457588        3.9211706650
  C        12.2809464397       11.0952539179        4.5896605772
  C        13.6194958161       10.7208672617        4.3573192123
  C        14.3571236538       11.4355618304        3.3955676904
  C        13.7918056172       12.5167310454        2.7227966380
  C        14.2532303620        9.6243004676        5.1278629224
  C        14.2520898546        9.6443914947        6.5497168230
  C        13.7419498783       10.7531921739        7.2968330953
  C        22.5122644797        3.2463146029       13.7473267586
  C        23.2248533618        4.3544107532       13.0482914151
  C        24.2232557806        4.0797726062       12.1018311597
  C        24.8474244531        5.1226386098       11.4215421000
  C        24.4894621310        6.4636375966       11.6663375480
  C        23.5193818751        6.7297631653       12.6500316328
  C        22.8907883248        5.6887896986       13.3288930536
  C        25.0925286830        7.5729875885       10.8910047951
  C        25.0695457597        7.5633716238        9.4691054198
  C        24.3699166902        6.5622990704        8.7229702877
  C        38.3033132399       31.9312905509       13.8438705972
  C        37.5735483050       30.8434260479       13.1326510465
  C        36.6083581132       31.1504788991       12.1615833301
  C        35.9883194505       30.1325440024       11.4428600125
  C        36.3196820052       28.7831996118       11.6736973725
  C        37.2569827251       28.4833285024       12.6799234054
  C        37.8804986808       29.5000869329       13.3981199840
  C        35.7101178586       27.6948001589       10.8783374381
  C        35.7257427197       27.7161325663        9.4568238403
  C        36.4274739120       28.7184513448        8.7154769939
  C        25.6951157773        8.6316224095        8.7484578684
  C        25.6845388426        8.6517486481       11.5608731955
  C        38.3241124755       31.9624019232        2.1597027928
  C        37.5878021785       30.8950265179        2.8984034462
  C        36.6607121507       31.2165232777        3.9021132521
  C        36.0328262853       30.2076793565        4.6302244326
  C        36.3163823062       28.8502753747        4.3789851704
  C        37.2204551823       28.5387106990        3.3446554267
  C        37.8508639423       29.5445884696        2.6176065213
  C        35.6934955903       27.7600798921        5.1665797339
  C        35.7168712685       27.7498675959        6.5890797734
  C        36.4243562250       28.7338380123        7.3487945203
  C        46.1356439925       26.6209298922        7.2866123072
  C        46.0876026327       26.5799768172        4.4787172991
  C        22.4623719680        3.2570972831        2.2641716390
  C        23.1582070767        4.3656689036        2.9873592750
  C        24.1586373382        4.0792239892        3.9301549400
  C        24.7883516826        5.1087691146        4.6260955971
  C        24.4389848671        6.4557828105        4.4022302517
  C        23.4615857440        6.7353255576        3.4280538331
  C        22.8269617312        5.7060608682        2.7328811001
  C        25.0714642791        7.5543850510        5.1761657633
  C        25.0600328558        7.5525034087        6.5992981990
  C        24.3629516237        6.5584699958        7.3562594108
  C        26.6027976050       17.8949891043       13.7777642946
  C        25.3011557317       17.9514661026       13.0460145346
  C        25.0363493276       18.9661329361       12.1122964280
  C        23.8246278313       18.9894183638       11.4230313082
  C        22.8429145543       18.0027529138       11.6483708625
  C        23.1047737733       17.0107713669       12.6116507026
  C        24.3175005161       16.9815851529       13.2974851796
  C        21.5701978768       17.9889342813       10.8843038151
  C        21.5721224554       17.9694351544        9.4625494784
  C        22.7797782289       17.8563001350        8.7033283572
  C        34.4185308503       17.2262869353       13.8793753113
  C        35.7133631903       17.1715211436       13.1414939035
  C        35.9124798394       16.2126136047       12.1357371003
  C        37.0984142719       16.1926389644       11.4073416822
  C        38.1166745814       17.1327408176       11.6606513797
  C        37.9197928949       18.0711364686       12.6920198439
  C        36.7328661760       18.0943749002       13.4208014551
  C        39.3717121469       17.1403850270       10.8747961503
  C        39.3656616009       17.1490154732        9.4523217827
  C        38.1581849629       17.2636234749        8.6937242542
  C        20.3257358619       17.9758930762        8.7542280474
  C        20.3460875140       17.9812026225       11.5673778212
  C        34.4420340091       17.2379085434        2.1914485115
  C        35.7468458778       17.1308059706        2.9025239322
  C        35.9537200741       16.1542076043        3.8887583366
  C        37.1448434333       16.1341752817        4.6109637424
  C        38.1563630001       17.0821526077        4.3665555638
  C        37.9578270161       18.0270043266        3.3412266884
  C        36.7664053379       18.0565758104        2.6235742299
  C        39.4035120587       17.1069085088        5.1632573751
  C        39.3819874712       17.1297228264        6.5849629975
  C        38.1651090511       17.2503067356        7.3272174717
  C        35.0861926606       26.6728643997        7.2969775322
  C        35.0811048540       26.6990172667        4.4878876626
  C        26.5687239761       17.8248964930        2.3319260534
  C        25.2559391817       17.8759404584        3.0383564835
  C        24.9714245545       18.9164887477        3.9356496772
  C        23.7523804989       18.9475391319        4.6071617875
  C        22.7897541876       17.9392267784        4.4032764544
  C        23.0684540014       16.9215394748        3.4736648184
  C        24.2879245156       16.8883641700        2.8001331188
  C        21.5247284211       17.9298453297        5.1746271053
  C        21.5485328245       17.9381222596        6.5953809587
  C        22.7686972871       17.8412291569        7.3372474733
  C        14.0451048531       17.8296447581        2.2921463352
  C        15.3500688938       17.8895345177        3.0159697412
  C        15.6074482311       18.8995954829        3.9556849573
  C        16.8166933855       18.9243576309        4.6474610974
  C        17.8013203764       17.9418774332        4.4204602365
  C        17.5487563853       16.9554052609        3.4488471187
  C        16.3387978056       16.9263135692        2.7586783630
  C        19.0699033568       17.9307889810        5.1889400632
  C        19.0675930683       17.9372491006        6.6111217480
  C        17.8603957681       17.8362943534        7.3720599633
  C        46.8031745492       17.2169017099        2.1621301354
  C        45.5109659479       17.1505230711        2.9022910155
  C        45.3070928699       16.1754745644        3.8910834502
  C        44.1230669924       16.1538909994        4.6231408528
  C        43.1126718698       17.1069246387        4.3883895728
  C        43.3130884281       18.0598585984        3.3713222612
  C        44.4980784321       18.0859145692        2.6405227209
  C        41.8592143338       17.1169941485        5.1764577313
  C        41.8661931875       17.1282387093        6.5983435301
  C        43.0752708515       17.2335408774        7.3553930064
  C        20.3136106217       17.9600569349        7.3198338274
  C        20.2940693146       17.9075349838        4.5069895671
  C        46.7833975290       17.2336447192       13.8795149638
  C        45.4820196460       17.1340526005       13.1582894802
  C        45.2638725676       16.1434953967       12.1882594629
  C        44.0764039881       16.1219503618       11.4602171962
  C        43.0752101271       17.0877651567       11.6834147781
  C        43.2845773970       18.0486158330       12.6907167234
  C        44.4731000391       18.0768142464       13.4139254107
  C        41.8273411699       17.1123953561       10.8871515966
  C        41.8499425791       17.1252878330        9.4655878270
  C        43.0677352733       17.2289592750        8.7222171539
  C        46.1534047993       26.6373835443        8.7211578869
  C        46.1621751593       26.6560793491       11.5308103987
  C        14.0443751298       17.8330109963       13.7037474079
  C        15.3647957371       17.9131228261       13.0112611329
  C        15.6315794853       18.9338632597       12.0865748392
  C        16.8586240450       18.9796768086       11.4286241135
  C        17.8465654419       18.0042213961       11.6704707195
  C        17.5864421389       17.0115391795       12.6327018286
  C        16.3610100249       16.9651449881       13.2938835436
  C        19.1136256394       17.9905390503       10.9005578079
  C        19.0904222977       17.9672075752        9.4790345363
  C        17.8715061244       17.8495525567        8.7380808254
  C        28.8084299715       14.0846177887        2.3642468910
  C        28.2039851419       12.9129406663        3.0618031819
  C        28.9333503426       12.1718981254        4.0038656487
  C        28.3351354580       11.1018488061        4.6662255471
  C        26.9958467259       10.7454946007        4.4073149277
  C        26.2891861815       11.4661668367        3.4275566432
  C        26.8831072560       12.5383234036        2.7667721019
  C        26.3275196844        9.6661545022        5.1719768326
  C        26.3114399351        9.6957414197        6.5931367288
  C        26.8155869417       10.8090330980        7.3376313966
  C        32.1279829461       21.2364001611        2.1954899306
  C        32.6912426962       22.4190285628        2.9096260668
  C        31.9461794694       23.0781461892        3.9006018694
  C        32.5089258904       24.1338963991        4.6137560999
  C        33.8291894151       24.5554388474        4.3592018717
  C        34.5514191674       23.9154414586        3.3344626083
  C        33.9927435843       22.8581305415        2.6215803986
  C        34.4642927326       25.6321313150        5.1517572940
  C        34.4781747826       25.5957553632        6.5729756329
  C        33.9804537688       24.4770573341        7.3131266539
  C        25.6963251967        8.6214244204        7.3132694535
  C        25.6906678516        8.6144512673        4.4995309657
  C        32.1038280931       21.2296087427       13.8756828347
  C        32.6915668141       22.3818074986       13.1321535017
  C        31.9479285574       23.0523811485       12.1487538645
  C        32.5235402595       24.0863131133       11.4141936144
  C        33.8564370958       24.4796666707       11.6452688530
  C        34.5831114169       23.8225319569       12.6565324192
  C        34.0121613795       22.7831044889       13.3862201159
  C        34.4915787834       25.5636239621       10.8606291407
  C        34.4911723577       25.5612785247        9.4388405681
  C        33.9852015457       24.4603220748        8.6792264556
  C        40.6116382172       17.1209440509        8.7428781850
  C        40.5964616451       17.1376621579       11.5530924676
  C        28.7266567843       14.0994849170       13.8109224807
  C        28.1090373775       12.9535117503       13.0776087524
  C        28.8439334339       12.2594594812       12.1035720541
  C        28.2655304847       11.2011949127       11.4071368109
  C        26.9347805500       10.8089485302       11.6568790392
  C        26.2166952647       11.4908340818       12.6576865673
  C        26.7938721463       12.5500415044       13.3569770514
  C        26.2971308577        9.7149497153       10.8837136917
  C        26.2954620708        9.7218744712        9.4609934892
  C        26.8041879778       10.8236850512        8.7035543244
  C        18.1355444365        3.1810785102        2.3222663208
  C        17.4062373338        4.2783258838        3.0209184783
  C        16.3902883157        3.9999334053        3.9481661028
  C        15.7425298743        5.0398738883        4.6117028396
  C        16.0946190787        6.3835747374        4.3722463004
  C        17.0842595345        6.6531366929        3.4087704931
  C        17.7334173117        5.6158363525        2.7437077702
  C        15.4701732429        7.4912383592        5.1352646841
  C        15.4855744752        7.4906622258        6.5569716142
  C        16.1873450178        6.4971831372        7.3101184475
  C        42.9459150461       31.8595624299        2.0780907785
  C        43.6463453876       30.7718967409        2.8218882070
  C        44.5921334198       31.0932041186        3.8077319580
  C        45.1978575728       30.0876513765        4.5553631226
  C        44.8711997766       28.7346047183        4.3407112224
  C        43.9451838510       28.4202709768        3.3276650588
  C        43.3363510527       29.4254153962        2.5796437142
  C        45.4887206526       27.6553111228        5.1439517018
  C        45.4930800939       27.6811042276        6.5656415402
  C        44.8062617171       28.6893405964        7.3122481749
  C        14.8564083293        8.5630645259        7.2693000916
  C        14.8745870377        8.5627904934        4.4566364772
  C        42.9464514100       31.9616630036       13.8039564521
  C        43.6917120046       30.8855540280       13.0905228358
  C        44.6561873848       31.1915024770       12.1181084464
  C        45.2777364053       30.1719377400       11.4003808862
  C        44.9540852196       28.8215879434       11.6380447500
  C        44.0207852523       28.5238886130       12.6489997148
  C        43.3925348299       29.5406242447       13.3612296638
  C        45.5630982367       27.7242101942       10.8527536940
  C        45.5335616115       27.7176198532        9.4314437329
  C        44.8274962002       28.7079897954        8.6784318142
  C        35.0921096754       26.6548829634        8.7317032889
  C        35.1116679714       26.6177111355       11.5417202935
  C        18.1487700879        3.2470768026       13.7015578252
  C        17.4302024716        4.3439379013       12.9921922085
  C        16.4148173080        4.0526571458       12.0688270866
  C        15.7664735754        5.0832574708       11.3934076718
  C        16.1212836418        6.4284749547       11.6159464674
  C        17.1128793287        6.7118747931       12.5729681005
  C        17.7606134465        5.6829897300       13.2527334564
  C        15.4906475448        7.5241484104       10.8435432840
  C        15.4966423368        7.5076142659        9.4224077319
  C        16.1935740832        6.5060180767        8.6757246684
  H        10.6722260650       12.4662406648       11.8989696307
  H        11.6942427204       10.5513930067       10.6571488536
  H        15.3906013151       11.1670702626       12.7684360121
  H        14.3501889383       13.0699430013       14.0137651715
  H        13.3750717509       11.6306892008        9.1961701295
  H        50.3227649946       22.7491223387       11.9824242809
  H        49.3195104681       24.6235505617       10.6763572257
  H        45.6413301869       24.1601394945       12.8576889197
  H        46.6622135463       22.2892372528       14.1658791983
  H        47.6293968986       23.5757869537        9.2411699224
  H        14.8716937702        8.5879688084       12.6034604765
  H        50.2871307694       22.7034749320        4.0645284725
  H        49.2690267998       24.5762931607        5.3646394643
  H        45.6093066688       24.1074943085        3.1526465210
  H        46.6513706114       22.2521943674        1.8384621103
  H        47.6073596436       23.5516934664        6.8020107406
  H        40.6406218817       17.0786646386        3.4107496845
  H        48.6865307561       14.0948908099       15.7948191032
  H        10.6812016287       12.4672439310        4.0989859961
  H        11.6891666929       10.5253084203        5.3027306327
  H        15.3922186211       11.1568879111        3.2089277855
  H        14.3638089752       13.0853454919        1.9934158231
  H        13.3746653591       11.6216209147        6.7582165747
  H        47.9301626763       14.2169816274        1.7160987838
  H        47.7794733741       14.3712681187       14.4892827527
  H        49.0819087869       18.5517608234        2.8718856587
  H        10.4151650991       14.1343424696        0.0037172790
  H        24.4884442302        3.0425413018       11.9092421472
  H        25.6218007047        4.9080645115       10.6882299048
  H        23.2347068196        7.7613135036       12.8467673859
  H        22.1199420098        5.8863229420       14.0697918023
  H        23.8067296879        5.8070415826        9.2633592407
  H        36.3686102090       32.1942372437       11.9730478832
  H        35.2383255427       30.3731516375       10.6926126805
  H        37.5204483437       27.4437850666       12.8636866005
  H        38.6291891054       29.2776757690       14.1547370903
  H        37.0011516505       29.4641578641        9.2582047854
  H        25.7160705966        8.6371690315       12.6488686478
  H        36.4533424725       32.2638627870        4.1095608239
  H        35.3097988507       30.4646410883        5.4012636304
  H        37.4519504234       27.4949348514        3.1427590931
  H        38.5712171828       29.3069761564        1.8384482007
  H        36.9970083572       29.4906112712        6.8204466416
  H        46.1087741401       26.5871456053        3.3906768749
  H        44.6684750830       35.1162387472       15.8087666726
  H        24.4340868675        3.0407046269        4.0994242935
  H        25.5674757194        4.8780330198        5.3495236613
  H        23.1793400021        7.7701772746        3.2451745334
  H        22.0568883561        5.9208063132        1.9954959914
  H        23.7936306734        5.8010832921        6.8252535646
  H        44.9546063037       34.3910959862        1.7006905566
  H        44.9021337988       34.2071089489       14.4852613654
  H        40.6654240411       33.2087729610        2.8579572886
  H        23.1507201404        1.9581579686        0.0103955382
  H        25.7865262111       19.7377471449       11.9505699961
  H        23.6201740270       19.7832329041       10.7075154490
  H        22.3579983203       16.2403166341       12.7926037291
  H        24.5316534137       16.2029374695       14.0259178972
  H        23.7199218883       17.7472283641        9.2360383762
  H        35.1214534192       15.4948593892       11.9319207614
  H        37.2502594719       15.4399054488       10.6368694263
  H        38.6971739014       18.8053944007       12.8931054739
  H        36.5667285602       18.8328715280       14.2016751300
  H        37.2183776526       17.3892608892        9.2232916967
  H        20.3527632539       18.0179559427       12.6553402621
  H        35.1699205045       15.4352242315        4.1148329665
  H        37.2951915751       15.3783348980        5.3786938959
  H        38.7324631470       18.7652047439        3.1444020087
  H        36.5920823134       18.8068572664        1.8563214954
  H        37.2304516841       17.3607649025        6.7847097432
  H        35.0417500181       26.7286129647        3.4006036356
  H        28.5164447827       21.0863833971       15.9770330529
  H        25.7155981349       19.6954595228        4.0857300436
  H        23.5288548370       19.7580941176        5.2976303058
  H        22.3326615608       16.1363724122        3.3122846493
  H        24.5198236691       16.0927374192        2.0960167442
  H        23.7002576302       17.7218364351        6.7917570919
  H        28.9838940029       21.7179377457        1.7901555072
  H        29.1360931308       21.7604150208       14.6090265500
  H        32.1022757840       18.5481543092        3.0019440909
  H        27.4132839182       19.0918492419        0.1023623377
  H        14.8492417052       19.6601072405        4.1284464805
  H        17.0137269496       19.7133903932        5.3700488197
  H        18.2991148739       16.1889228067        3.2660406935
  H        16.1305961597       16.1521631998        2.0239504444
  H        16.9188924603       17.7145558343        6.8443449181
  H        46.0936149407       15.4485096690        4.0793991346
  H        43.9658977317       15.3908533025        5.3823221291
  H        42.5404556168       18.8028778786        3.1848591504
  H        44.6690856700       18.8367177261        1.8726241998
  H        44.0159823608       17.3487764838        6.8246217517
  H        20.2884267861       17.9247309991        3.4186067420
  H        46.0400598719       15.4034423080       12.0069211741
  H        43.9113933759       15.3519316506       10.7097175327
  H        42.5181591271       18.7995063072       12.8712003955
  H        44.6534272113       18.8381589031       14.1688621765
  H        44.0027293352       17.3393920982        9.2638302060
  H        46.1988678350       26.6825027536       12.6182645773
  H        52.7406971309       21.0624883559        0.1996868635
  H        14.8671117100       19.6849445677       11.9002641757
  H        17.0643970024       19.7742894410       10.7146180290
  H        18.3406429863       16.2515557023       12.8264420121
  H        16.1446765305       16.1862156604       14.0210773688
  H        16.9384533429       17.7377873699        9.2822016960
  H        52.3214347996       21.6729794468       14.2896841190
  H        52.0126197790       21.7016266411        1.5007453188
  H        49.0661682219       18.6074562117       13.1990434901
  H        13.2465595420       19.0172676594       15.9718732791
  H        29.9677140514       12.4451685309        4.2023356955
  H        28.9027407158       10.5276533046        5.3954454033
  H        25.2547627754       11.2008031290        3.2190768883
  H        26.3342789465       13.1155697071        2.0267363507
  H        27.1862868574       11.6736720525        6.7953647672
  H        30.9333030518       22.7413316361        4.1122446638
  H        31.9264183031       24.6445070563        5.3776146142
  H        35.5729823766       24.2305773643        3.1320762369
  H        34.5573893367       22.3389540353        1.8508509310
  H        33.6187044588       23.6104205610        6.7679704845
  H        25.7225920316        8.5931885465        3.4115965818
  H        30.9207355322       22.7437987667       11.9681117670
  H        31.9405983247       24.6070479411       10.6576039829
  H        35.6151061306       24.1146946733       12.8395719305
  H        34.5785915438       22.2534068617       14.1485857294
  H        33.6264956672       23.5814086414        9.2074271477
  H        40.5903040890       17.0999717106       12.6408008203
  H        32.5225747533       14.1560722443        0.2528621101
  H        29.8696237942       12.5642264949       11.9089011046
  H        28.8457123887       10.6604589063       10.6625394613
  H        25.1873168981       11.2014843937       12.8593484539
  H        26.2346666664       13.0895709702       14.1178118120
  H        27.1649630637       11.7001262639        9.2339404712
  H        33.2973528853       14.2122304336       14.4317824439
  H        33.4044109936       14.3598229466        1.6322794703
  H        32.0868970756       18.5266647927       13.1539281198
  H        30.2412986814       14.1963432491        0.0725538922
  H        16.1180773186        2.9634268534        4.1343306386
  H        14.9528770092        4.8204829214        5.3271384904
  H        17.3668223146        7.6860131335        3.2158754041
  H        18.5157031526        5.8184694739        2.0161189345
  H        16.7539624654        5.7399056486        6.7765896882
  H        44.8286403861       32.1402573755        3.9817728609
  H        45.9379345153       30.3413975597        5.3111021720
  H        43.6823429405       27.3782170681        3.1576786751
  H        42.5995875701       29.1900581285        1.8151311533
  H        44.2311248664       29.4372581535        6.7739275090
  H        14.8506354018        8.5458250923        3.3684232495
  H        44.8996845687       32.2341830101       11.9266024593
  H        46.0245929361       30.4132350630       10.6471169854
  H        43.7640066970       27.4841349272       12.8406931093
  H        42.6463017971       29.3177404769       14.1199103173
  H        44.2691572024       29.4710329254        9.2129640331
  H        35.0817176889       26.6262191521       12.6296329598
  H        36.6051548360       35.1342651557        0.1856812620
  H        16.1436026811        3.0130826939       11.8993017283
  H        14.9739961368        4.8563993391       10.6834934890
  H        17.3965115377        7.7473377843       12.7496713410
  H        18.5436941393        5.8934291055       13.9772846195
  H        16.7650875160        5.7558577091        9.2141967281
  H        36.2787485737       34.4828093755       14.2680328125
  H        36.3811010670       34.2093007627        1.5047556130
  H        40.5813653173       33.2034856808       13.1487439579
  H        17.4711019377        1.9475972244       15.9691579394
  H        28.7393474498       18.8834979189        4.3750748005
  H        28.8502787735       18.4550658418       11.9182142933
  H        31.6121394106       15.8306103134       11.5642514504
  H        31.1241697599       15.4391601502        4.4481864551
  H        28.5668081882       17.2418328841        7.0774170216
  H        29.6934638440       15.1437408652        6.6982908099
  H        30.4799191852       20.0303167707       10.0015067361
  H        32.7610729849       17.4804471105        9.5401811544
  H        18.8538716649        0.8690495789        4.3404677143
  H        40.5279375408       35.2287518226       11.9467850767
  H        42.3254924195       34.4200489670       11.5847359879
  H        22.0878020178        0.6919548587        4.3568363821
  H        11.5969751977       18.7130610262        4.3872982204
  H        52.2643494315       18.4302985421       11.6724323575
  H        49.2546431354       16.4765273525       11.5793808477
  H        10.1499857328       15.7981012195        4.2980329688
  H        50.8490574073       17.6923959393       11.9492035402
  H        10.0459271429       17.3944085863        4.0571374002
  H        20.2151522616        0.0021730494        4.0470356433
  H        39.1838846747       36.1244748140       11.6812570637
 Ni        30.9054641877       17.8858224146       10.9085563026
 Ni        31.1556910008       16.3737631053        8.2417888662
 Ni        29.9731392822       18.8170583357        7.9204932209
 Ni        29.9785801047       17.2080308400        5.3250476661
  O        10.6498065425       14.3652129342       13.4806976597
  O        12.6131318794       14.6575816539       14.5787345125
  O        49.1477888633       16.8460059652       15.9845794917
  O        50.3501272346       20.9361094959       13.6431054444
  O        48.3485060372       20.5933269789       14.6608483961
  O        11.0508737654       17.0540142911       14.4953953931
  O        50.3207721222       20.8816646886        2.4119079924
  O        48.3466710003       20.5867167111        1.3321205195
  O        49.5434633072       18.2484811464        2.0733692606
  O        12.3586587174       18.6243939057        0.0047374960
  O        48.6931535268       14.1487374254       14.7461172094
  O         8.2098584852       14.2103669665        1.3275969024
  O        10.7353149107       14.5067450028        2.6694612439
  O        12.5717455630       14.5828925086        1.3335476073
  O        22.8449786524        2.0449144302       13.4816008358
  O        21.6057632804        3.5927314655       14.5847339904
  O        42.0582608776       34.1375694105       15.9740001490
  O        37.9819598758       33.1394894109       13.5678508806
  O        39.2180669117       31.5764536935       14.6615993438
  O        20.3087238660        1.0401540039       14.4971809641
  O        38.0248759597       33.1870133244        2.4198594261
  O        39.2172101170       31.5823606640        1.3334528626
  O        40.6523454021       33.7693593679        2.0652667713
  O        18.2557328589        1.3763502612        0.0019762595
  O        44.6221660552       35.1006421554       14.7536371947
  O        24.2053970575        0.0000670944        1.3258836254
  O        22.7533938997        2.0584597908        2.5895460744
  O        21.6252824589        3.5970399549        1.3495157052
  O        27.5031819988       18.7606514250       13.4764413448
  O        26.7272555146       16.9910797377       14.6634160179
  O        30.6628260959       19.4102343168        0.0858798916
  O        33.5423830259       16.3404562829       13.5897213973
  O        34.2706354621       18.1712280554       14.7320663700
  O        29.5675621260       17.0734451883       14.5770243481
  O        33.5502021877       16.3439620885        2.4235078484
  O        34.2965915449       18.2437147089        1.4132564541
  O        31.6494078664       18.3124705036        2.1755601447
  O        30.3237857393       15.1640754844        0.0873085593
  O        28.5533573448       21.0366027626       14.9015135064
  O        28.5156488177       20.9513769981        1.4187062603
  O        27.4586253117       18.6798655340        2.6662694842
  O        26.6926097536       16.9320991080        1.4208213845
  O        13.1479366703       18.6933412949        2.5920882444
  O        13.9190755642       16.9160556638        1.4097714612
  O        50.5954096555       19.3501748803        0.0253995787
  O        47.6832416639       16.3270726009        2.4222191151
  O        46.9515182552       18.1757052400        1.3297388852
  O        11.0692897247       17.0156379604        1.4947804266
  O        47.6739078114       16.3362767251       13.6469576438
  O        46.9258236094       18.2359487786       14.6585269691
  O        49.5680227247       18.3177088649       13.9769487173
  O        10.3183819991       15.1002645468        0.0021288651
  O        52.6706690419       21.0278876211        1.2469318627
  O        12.1467682337       20.8911224051       14.6680706766
  O        13.1069857407       18.6141556699       13.3205188433
  O        13.9575250701       16.9874455645       14.6593253200
  O        30.0003654608       14.4326147789        2.6683211768
  O        28.0779092309       14.6588561586        1.4881954632
  O        32.0982361834       16.8996023943        0.0816149441
  O        30.9334946254       20.8816626979        2.5010190971
  O        32.8959500688       20.6584708494        1.3492524107
  O        29.5652893609       17.0758253155        1.5794646720
  O        30.8728490855       20.9456744336       13.6556241409
  O        32.8783498337       20.5921631435       14.6631413929
  O        31.6534851970       18.3142817595       13.9996628914
  O        28.2932487320       18.6812503844        0.0848801995
  O        32.4893743614       14.2146324620        1.3305510743
  O        32.4039962778       14.2294057354       14.8139863449
  O        29.9106863846       14.4409840669       13.4940696798
  O        28.0091898599       14.6488936508       14.7308201259
  O        17.8892869756        1.9667462808        2.6679333694
  O        18.9563212829        3.5272500165        1.4130868299
  O        39.1686465775       34.1387520771        0.0024363840
  O        43.2802074219       33.0589824211        2.3368152882
  O        42.0344003626       31.5065114005        1.2468046757
  O        20.3180063693        1.0369924245        1.4851997424
  O        43.2760103815       33.1826307591       13.5698378318
  O        42.0052048801       31.5841540604       14.5779794220
  O        40.5793160373       33.7754151027       13.9314128750
  O        22.3675767405        1.3849141835        0.0030862204
  O        36.6727757303       35.0999487693        1.2383360813
  O        16.4456649525        0.0645628882       14.6632470635
  O        17.9365184000        2.0434839888       13.3212837908
  O        18.9191518795        3.5932030869       14.6608775885
  O        29.7341129048       18.8383927727       12.0765379448
  O        29.6847559393       18.7520394023        4.1573105205
  O        31.1697114291       16.4772648570       12.1475211882
  O        31.1739399583       16.3451275515        4.0828108827
  O        32.0629680445       16.8551615197        9.8111489963
  O        30.3787030260       15.8226081754        6.5859424118
  O        31.5622700074       18.0310931931        7.2619976607
  O        30.9187395149       19.2695164732        9.5755711733
  O        28.8538948131       18.0271021640        6.5682745371
  O        39.4567759612       35.2438021888       11.9968872755
  O        19.1416296898        0.0045780588        3.9956306469
  O        41.9694475580       35.1725632905       12.0822152854
  O        21.6912582595       -0.0693188613        3.9010260489
  O        51.3646643661       18.6141730251       12.0002941291
  O        10.7511101663       18.7473113241        3.9099622593
  O        50.0791485120       16.4129111479       12.0866862068
  O         9.5244044889       16.4830905892        3.9963100407
 Zr         9.2947608162       16.0527897518       14.1770846107
 Zr        49.8349365516       16.0066550495        1.7518300337
 Zr        22.0735957740        0.0305311614       14.1838245066
 Zr        42.4613696439       35.1538636740        1.8063151782
 Zr        29.6121077355       19.1206995646       14.2915902979
 Zr        29.5834927247       19.1538207612        1.8885171904
 Zr        11.0362425939       19.0521572680        1.8324128538
 Zr        11.0421818448       19.1549687110       14.2463465292
 Zr        31.3421019729       16.0992978759        1.8770577681
 Zr        31.3781438575       16.0434460353       14.2728549996
 Zr        18.6015503726       -0.0008598258        1.7683978007
 Zr        18.5069126384       -0.0068644656       14.2089458367
 Zr        12.2998739752       16.3232861089       15.9848377093
 Zr        48.6141243770       18.8325747623        0.0151629645
 Zr        20.3162761049        2.4743421246       15.9858234430
 Zr        40.6439372561       32.6874304340       15.9737359819
 Zr        28.3412599116       16.3491616829        0.0784254824
 Zr        32.6345911344       18.8597687359        0.0594896242
  H        32.2576836038       18.5915988681        7.6545534206
  O        33.4162520804       15.0980437300        5.6644472971
  H        32.8605803661       15.0493111198        6.4639671236
  H        33.0021766314       15.8310590962        5.1677776885
  O        28.2238534942       19.5706633882        8.6615440481
  H        27.6130897324       19.4126012780        7.9146624206
  H        27.9296249969       18.9904708118        9.3875608713
  O        30.4124551999       20.7378361287        6.1495960579
  H        30.2904614126       20.1024190947        5.4007642901
  H        31.3180859465       21.0659550621        6.0349767665
  H        30.7575630201       15.1353405653        8.8913227576
