     583
 i =      228, E =     -4830.6381708242
  C        11.8585218680       14.0535520522       13.7365111534
  C        12.4559649565       12.8904478227       13.0183171783
  C        11.7044813624       12.1719674345       12.0761614869
  C        12.2808022425       11.1097178885       11.3838137746
  C        13.6211920694       10.7394982863       11.6119418817
  C        14.3541239715       11.4425930192       12.5859447531
  C        13.7812744999       12.5075907411       13.2774475778
  C        14.2607976193        9.6489187669       10.8384963983
  C        14.2562938991        9.6569475671        9.4167898481
  C        13.7431069105       10.7590595139        8.6628728553
  C        49.1266814211       21.2332306056       13.8745861205
  C        48.5499678083       22.4010694888       13.1474683416
  C        49.3000999465       23.0685840050       12.1666581254
  C        48.7331700593       24.1077282911       11.4334832668
  C        47.4025156973       24.5091657996       11.6618714278
  C        46.6714174385       23.8600212298       12.6751044527
  C        47.2338596658       22.8151135974       13.4044533693
  C        46.7723546822       25.5869249062       10.8646132803
  C        46.7615394862       25.5573979980        9.4428506734
  C        47.2615289334       24.4423329376        8.6993528212
  C        14.8603580170        8.5706686715        8.7035306402
  C        14.8915130621        8.5969266033       11.5151543299
  C        49.1130826021       21.2034565505        2.1504613160
  C        48.5277476581       22.3646735912        2.8777041332
  C        49.2671277513       23.0257668021        3.8702731237
  C        48.6907641100       24.0603097719        4.6016973979
  C        47.3601992858       24.4567658487        4.3637296942
  C        46.6395951489       23.8114473702        3.3406055363
  C        47.2131795247       22.7755390654        2.6088539162
  C        46.7218465407       25.5318016258        5.1547350194
  C        46.7337693590       25.5282519918        6.5764294767
  C        47.2492658838       24.4290626259        7.3328019374
  C        40.6230840496       17.1227779975        7.3128824657
  C        40.6341765873       17.1196628125        4.5033943871
  C        11.8828529562       14.0865536858        2.2905621721
  C        12.4721169720       12.9106109064        2.9947184975
  C        11.7146810458       12.1775747991        3.9210180795
  C        12.2812545073       11.0951185740        4.5894632059
  C        13.6199843849       10.7211967823        4.3574525931
  C        14.3578242647       11.4364992758        3.3963394238
  C        13.7924024172       12.5176624889        2.7236298684
  C        14.2536208822        9.6244856325        5.1278941368
  C        14.2525287381        9.6445915313        6.5497347466
  C        13.7425926393       10.7535002703        7.2968262281
  C        22.5108318556        3.2451720403       13.7466159936
  C        23.2222240247        4.3521945770       13.0445933670
  C        24.2176114346        4.0748168214       12.0959301289
  C        24.8416217990        5.1159910036       11.4131408343
  C        24.4861762888        6.4574213008       11.6582232931
  C        23.5183881158        6.7262772213       12.6433139617
  C        22.8898752561        5.6869170338       13.3246172668
  C        25.0909357532        7.5652404176       10.8825448411
  C        25.0662226402        7.5579975241        9.4607391994
  C        24.3637700873        6.5591644808        8.7142663664
  C        38.3023582341       31.9297100169       13.8442773604
  C        37.5725264362       30.8402686737       13.1357815123
  C        36.6156224921       31.1434737373       12.1551953626
  C        35.9991657507       30.1225042776       11.4373307815
  C        36.3245194548       28.7733867763       11.6788646626
  C        37.2511376666       28.4778149672       12.6964087041
  C        37.8720881103       29.4974105076       13.4127967052
  C        35.7239329744       27.6808812586       10.8816868560
  C        35.7584011962       27.6941159390        9.4604804172
  C        36.4657517697       28.6956719137        8.7235579795
  C        25.6934217770        8.6258228840        8.7407877485
  C        25.6874558978        8.6407916681       11.5528467185
  C        38.3288823738       31.9616638304        2.1617328053
  C        37.6084729346       30.8881059115        2.9038741316
  C        36.6822260286       31.1956386119        3.9122422167
  C        36.0740104191       30.1762895827        4.6422045430
  C        36.3774345161       28.8237662594        4.3874312186
  C        37.2810913357       28.5263703516        3.3488602015
  C        37.8915931290       29.5421100515        2.6202360723
  C        35.7712938319       27.7236796528        5.1717337112
  C        35.7827043300       27.7159122674        6.5937690247
  C        36.4768994996       28.7064567729        7.3570318584
  C        46.1358293652       26.6209089733        7.2865772030
  C        46.0877487671       26.5800616613        4.4786689519
  C        22.4611407573        3.2560511651        2.2623672200
  C        23.1560301978        4.3654566787        2.9841572343
  C        24.1597773113        4.0802509517        3.9234133338
  C        24.7884951703        5.1110215539        4.6179439103
  C        24.4337580057        6.4566536473        4.3955881429
  C        23.4529916632        6.7352121038        3.4248911754
  C        22.8196020764        5.7046369986        2.7309678547
  C        25.0651026027        7.5551555511        5.1692391300
  C        25.0540814397        7.5515373554        6.5919114492
  C        24.3560951801        6.5572629803        7.3476314974
  C        26.6177310854       17.8620944740       13.7849326982
  C        25.3087766803       17.9090702900       13.0593429580
  C        25.0144494934       18.9552608872       12.1676187023
  C        23.8055150808       18.9687208284       11.4711030591
  C        22.8512118204       17.9483349867       11.6548303584
  C        23.1402388782       16.9254131680       12.5775161468
  C        24.3529162521       16.9007980214       13.2647668567
  C        21.5773247340       17.9377713849       10.8900448559
  C        21.5806813568       17.9331386799        9.4682266663
  C        22.7892398258       17.8337402384        8.7086109423
  C        34.4221315943       17.2220366259       13.8769926270
  C        35.7193108273       17.1644655753       13.1433206889
  C        35.9181234471       16.2122402602       12.1317753665
  C        37.1047557464       16.1961137599       11.4049104284
  C        38.1231775666       17.1334208791       11.6662307159
  C        37.9272869315       18.0645650857       12.7041262354
  C        36.7393123249       18.0842032682       13.4308664829
  C        39.3775326591       17.1444962444       10.8804431830
  C        39.3707486194       17.1603636386        9.4583517178
  C        38.1633608976       17.2904471701        8.7021240537
  C        20.3335717202       17.9438105262        8.7601796985
  C        20.3539741845       17.9284329335       11.5740574236
  C        34.4450273175       17.2370755295        2.1880858621
  C        35.7475567929       17.1396865312        2.9091021571
  C        35.9465795824       16.1760777063        3.9089135989
  C        37.1358452743       16.1528487344        4.6336481690
  C        38.1547948388       17.0914701926        4.3776958310
  C        37.9618944838       18.0265598414        3.3434074061
  C        36.7717777498       18.0557233866        2.6227866466
  C        39.4038554761       17.1141955597        5.1707505937
  C        39.3843053195       17.1436299010        6.5919421699
  C        38.1698200758       17.2797050927        7.3356135773
  C        35.1527178831       26.6362654268        7.2977637122
  C        35.1804950939       26.6533777103        4.4887828519
  C        26.5708627068       17.8264723464        2.3298221529
  C        25.2555641611       17.8785734673        3.0334041253
  C        24.9851094802       18.8995211221        3.9568095965
  C        23.7674611225       18.9302287649        4.6304472377
  C        22.7919075980       17.9392929512        4.4040104977
  C        23.0557683531       16.9429255622        3.4468997992
  C        24.2739912936       16.9106886745        2.7711357994
  C        21.5295536062       17.9235297840        5.1791948702
  C        21.5553548269       17.9222805665        6.6007349969
  C        22.7762139311       17.8264357420        7.3421258187
  C        14.0464608013       17.8288660798        2.2939041925
  C        15.3511553912       17.8864527333        3.0195643189
  C        15.6066571812       18.8894800485        3.9676147234
  C        16.8156950594       18.9116340195        4.6604198481
  C        17.8037712362       17.9337920879        4.4270220830
  C        17.5529281693       16.9546406232        3.4472236473
  C        16.3431175953       16.9278363116        2.7562249661
  C        19.0734121527       17.9201424384        5.1953690609
  C        19.0732733681       17.9180950055        6.6177191810
  C        17.8669072552       17.8118953850        7.3789711640
  C        46.8031666296       17.2166694971        2.1620958587
  C        45.5104616088       17.1494065105        2.9024362338
  C        45.3060848132       16.1722659259        3.8890676078
  C        44.1222509047       16.1497146897        4.6216328106
  C        43.1124148250       17.1040151177        4.3897702968
  C        43.3132546208       18.0591557387        3.3748349697
  C        44.4980094867       18.0859804126        2.6433954508
  C        41.8596763356       17.1151204980        5.1795700169
  C        41.8684234476       17.1276422750        6.6015939595
  C        43.0786434512       17.2276634287        7.3576629536
  C        20.3203065787       17.9375030434        7.3255576364
  C        20.2975086693       17.9034895366        4.5130268864
  C        46.7848581497       17.2331655713       13.8809526503
  C        45.4837437063       17.1324993120       13.1606158584
  C        45.2657323131       16.1391602728       12.1936896380
  C        44.0787060981       16.1167818162       11.4653550918
  C        43.0794462636       17.0847606613       11.6860469952
  C        43.2884834403       18.0484315967       12.6904634021
  C        44.4764486905       18.0772673781       13.4140137213
  C        41.8322143921       17.1101811460       10.8901331838
  C        41.8544416020       17.1242432697        9.4688643715
  C        43.0720756576       17.2230085897        8.7245299070
  C        46.1536485861       26.6373574893        8.7211198408
  C        46.1622742564       26.6559582351       11.5307639723
  C        14.0453331563       17.8305453421       13.7029364047
  C        15.3664903735       17.9021295171       13.0108757648
  C        15.6422856753       18.9177501759       12.0832773245
  C        16.8715714580       18.9532864853       11.4286710370
  C        17.8531485340       17.9721984607       11.6754593640
  C        17.5838358206       16.9846827338       12.6404585900
  C        16.3565487764       16.9488517686       13.2987326049
  C        19.1211712107       17.9493528242       10.9071753506
  C        19.0985233327       17.9321842052        9.4855466502
  C        17.8790240821       17.8182125006        8.7448667711
  C        28.8096243823       14.0829109799        2.3640374858
  C        28.2019399582       12.9103571231        3.0590546004
  C        28.9290683919       12.1691977871        4.0020780571
  C        28.3299163410       11.0989966917        4.6627929195
  C        26.9908285780       10.7443031355        4.4017598048
  C        26.2854938152       11.4655835715        3.4218038381
  C        26.8813214233       12.5373465206        2.7619952325
  C        26.3214965721        9.6658980483        5.1659035742
  C        26.3071596916        9.6934620468        6.5868842403
  C        26.8141188089       10.8051655487        7.3317863256
  C        32.1819396867       21.2401540896        2.1508369111
  C        32.7760708032       22.4061101449        2.8686591088
  C        32.0337699425       23.0753574768        3.8535422021
  C        32.6058622081       24.1131721038        4.5822026574
  C        33.9366285185       24.5093089364        4.3473884246
  C        34.6614597108       23.8585373948        3.3311329833
  C        34.0915761796       22.8153911213        2.6040106532
  C        34.5673236403       25.5825985957        5.1484335092
  C        34.5613271985       25.5519383469        6.5702091251
  C        34.0546697192       24.4357090238        7.3085169808
  C        25.6921754844        8.6186477931        7.3061061164
  C        25.6837785755        8.6153312287        4.4929823752
  C        32.1039600842       21.2269552370       13.8781220986
  C        32.6933723895       22.3800613804       13.1367109259
  C        31.9602652094       23.0354802570       12.1356401782
  C        32.5413619622       24.0639460368       11.3976515824
  C        33.8686179757       24.4666672523       11.6433784362
  C        34.5840790561       23.8248416226       12.6723194829
  C        34.0081279743       22.7905422695       13.4050847883
  C        34.5105216859       25.5462655468       10.8584621337
  C        34.5312630437       25.5341564099        9.4365759749
  C        34.0390750775       24.4275175498        8.6752557938
  C        40.6156834528       17.1264397291        8.7475012042
  C        40.6024820539       17.1360089054       11.5575878772
  C        28.7442432622       14.0604508275       13.8302727054
  C        28.1299294898       12.9169921261       13.0863507886
  C        28.8652160258       12.2218885319       12.1121896298
  C        28.2796732765       11.1729694033       11.4060109034
  C        26.9453589211       10.7905251793       11.6496931412
  C        26.2266992843       11.4746449786       12.6489451554
  C        26.8079927973       12.5253130327       13.3552597936
  C        26.3026408801        9.7017101490       10.8750922388
  C        26.2985883019        9.7130838992        9.4532109803
  C        26.8075144075       10.8160376998        8.6976258142
  C        18.1354376308        3.1808431702        2.3222481789
  C        17.4061122306        4.2781660870        3.0208806551
  C        16.3904389089        3.9998138676        3.9484318900
  C        15.7426450047        5.0397687884        4.6119287875
  C        16.0944827888        6.3834939149        4.3722132399
  C        17.0837977648        6.6530412623        3.4083893871
  C        17.7329244372        5.6157000122        2.7433612217
  C        15.4702170487        7.4912373162        5.1352536978
  C        15.4855472160        7.4905926513        6.5569667429
  C        16.1871892168        6.4970528231        7.3101571415
  C        42.9459161712       31.8594681907        2.0779947602
  C        43.6462477022       30.7718359178        2.8219384632
  C        44.5921377805       31.0931056705        3.8076910643
  C        45.1978174037       30.0875609685        4.5553674264
  C        44.8710570366       28.7345275166        4.3407882300
  C        43.9448700260       28.4202023249        3.3279062415
  C        43.3360918657       29.4253625144        2.5798611528
  C        45.4886979056       27.6552511191        5.1439728659
  C        45.4931104144       27.6810298124        6.5656631699
  C        44.8060274097       28.6890959910        7.3122608853
  C        14.8566239528        8.5631355632        7.2692993272
  C        14.8748139758        8.5629165326        4.4566321652
  C        42.9464058513       31.9614495845       13.8038154280
  C        43.6915479855       30.8853497598       13.0902901392
  C        44.6565093282       31.1912738807       12.1183430186
  C        45.2780585822       30.1716916257       11.4006421466
  C        44.9539586048       28.8213860932       11.6379478918
  C        44.0200031842       28.5237012346       12.6482777608
  C        43.3917178913       29.5404567335       13.3604496601
  C        45.5630650975       27.7240038535       10.8527150069
  C        45.5335740767       27.7174471521        9.4314145148
  C        44.8273377965       28.7077236604        8.6784442451
  C        35.1389354934       26.6260822630        8.7324757576
  C        35.1179966312       26.6062939761       11.5421018350
  C        18.1485392209        3.2468638540       13.7015765588
  C        17.4298678035        4.3437679212       12.9923062231
  C        16.4147958272        4.0525003007       12.0686030315
  C        15.7664689989        5.0831094303       11.3931703002
  C        16.1209532284        6.4283622242       11.6160222818
  C        17.1121380005        6.7117463684       12.5734810585
  C        17.7598085901        5.6828484408       13.2532791818
  C        15.4904678138        7.5240669635       10.8435657430
  C        15.4965601656        7.5075527549        9.4224263682
  C        16.1933946202        6.5058722385        8.6757627076
  H        10.6724675746       12.4663828354       11.8988967173
  H        11.6945560296       10.5515355691       10.6570102554
  H        15.3909475996       11.1675105333       12.7681143359
  H        14.3504979953       13.0703867279       14.0133982730
  H        13.3759136099       11.6311090072        9.1961760927
  H        50.3228776440       22.7487084158       11.9820451625
  H        49.3196799284       24.6231533803       10.6760349719
  H        45.6417832936       24.1604759541       12.8580069918
  H        46.6626540177       22.2896468026       14.1662456548
  H        47.6298992112       23.5758840544        9.2410367337
  H        14.8715549641        8.5879833944       12.6034549397
  H        50.2872725673       22.7031180212        4.0649696969
  H        49.2692346051       24.5759951019        5.3649829870
  H        45.6100170625       24.1083224067        3.1519035491
  H        46.6520676756       22.2530373803        1.8377328041
  H        47.6078835794       23.5518697536        6.8019189166
  H        40.6382231352       17.0745890791        3.4159879202
  H        48.6868031168       14.0949881372       15.7948584873
  H        10.6812594032       12.4667827854        4.0985135776
  H        11.6894399934       10.5248508498        5.3022450381
  H        15.3931460478       11.1583364271        3.2101985882
  H        14.3646389222       13.0868259221        1.9948571952
  H        13.3755872811       11.6220333759        6.7581772639
  H        47.9301293301       14.2180280819        1.7159827841
  H        47.7797867065       14.3727720421       14.4897611962
  H        49.0825081114       18.5519742054        2.8720518298
  H        10.4155794305       14.1343734342        0.0038393441
  H        24.4804345569        3.0368681705       11.9040118079
  H        25.6138203301        4.8997692416       10.6780188143
  H        23.2354798266        7.7584511511       12.8393245859
  H        22.1207871792        5.8858087761       14.0669888652
  H        23.7998555148        5.8042466218        9.2543702532
  H        36.3802680147       32.1865974774       11.9576653478
  H        35.2570269773       30.3607048285       10.6785553996
  H        37.5093963776       27.4387258996       12.8898865460
  H        38.6135558148       29.2772009887       14.1771093887
  H        37.0310212193       29.4451786489        9.2697753208
  H        25.7206057392        8.6245654613       12.6407619878
  H        36.4598943890       32.2396037933        4.1213685143
  H        35.3504203260       30.4204271977        5.4168130412
  H        37.5272318021       27.4863456645        3.1451253607
  H        38.6118663970       29.3170415123        1.8374992662
  H        37.0516325552       29.4638733983        6.8318388442
  H        46.1088616178       26.5872753522        3.3906279207
  H        44.6681599887       35.1160929814       15.8088275636
  H        24.4378995972        3.0421519704        4.0908421947
  H        25.5702605421        4.8827145393        5.3392803624
  H        23.1674135644        7.7695350326        3.2442543947
  H        22.0465692952        5.9168527375        1.9959856713
  H        23.7855265489        5.8015129639        6.8155824716
  H        44.9534916934       34.3901307606        1.7001191556
  H        44.9014214410       34.2067451578       14.4854107325
  H        40.6656331912       33.2086538001        2.8580344396
  H        23.1504879793        1.9577141661        0.0100070022
  H        25.7414251374       19.7553835275       12.0388921415
  H        23.5850866427       19.7811998712       10.7817261501
  H        22.4144034055       16.1282396797       12.7254397010
  H        24.5879735237       16.0986143665       13.9606954668
  H        23.7344688481       17.7291631435        9.2343245668
  H        35.1258998182       15.4984535958       11.9200102909
  H        37.2567715518       15.4498177663       10.6283473679
  H        38.7050566398       18.7968731129       12.9106786157
  H        36.5712840614       18.8184466547       14.2153450613
  H        37.2259731117       17.4281048389        9.2334397512
  H        20.3612707946       17.9568049825       12.6622942851
  H        35.1510189395       15.4642873181        4.1173723346
  H        37.2875727504       15.4033704172        5.4073283398
  H        38.7416532826       18.7575095172        3.1396716317
  H        36.6016853260       18.7976897408        1.8463856442
  H        37.2374272422       17.4079742890        6.7934607865
  H        35.1503760152       26.6805337880        3.4011795459
  H        28.5150102607       21.0802917464       15.9574490703
  H        25.7418451813       19.6613993210        4.1284596541
  H        23.5570760685       19.7255302414        5.3422808697
  H        22.3099881423       16.1712798634        3.2671939337
  H        24.4949129867       16.1298524170        2.0472818427
  H        23.7102372825       17.7162274553        6.7989838380
  H        28.9990621337       21.7239892771        1.7668812261
  H        29.1554960599       21.7453177859       14.6048267587
  H        32.1248025560       18.5503005063        2.9795461867
  H        27.4111482501       19.0826864657        0.0930597369
  H        14.8471999909       19.6474150723        4.1462478510
  H        17.0098893918       19.6958203602        5.3890433725
  H        18.3050976589       16.1914680288        3.2580419369
  H        16.1379099713       16.1586446008        2.0154452293
  H        16.9250864854       17.6918713583        6.8514110568
  H        46.0922626774       15.4444641472        4.0756134441
  H        43.9652611111       15.3851415061        5.3793180384
  H        42.5414413470       18.8036075664        3.1906465619
  H        44.6691790367       18.8385899243        1.8772764930
  H        44.0194321341       17.3385187197        6.8261129283
  H        20.2913131776       17.9285656590        3.4247844819
  H        46.0417398131       15.3983181901       12.0149866892
  H        43.9126357089       15.3451700522       10.7167415289
  H        42.5225697789       18.8005652964       12.8678086604
  H        44.6580423184       18.8403288469       14.1668791955
  H        44.0079906509       17.3290338417        9.2654857921
  H        46.1988047264       26.6823323642       12.6182239882
  H        52.7409631835       21.0625472661        0.1997967409
  H        14.8834673461       19.6733873326       11.8921145166
  H        17.0841929079       19.7442608190       10.7126537937
  H        18.3322224362       16.2201414603       12.8387744097
  H        16.1336648964       16.1737526707       14.0279618954
  H        16.9464360071       17.7030786430        9.2889960297
  H        52.3219004386       21.6729896111       14.2892756102
  H        52.0128105811       21.7017418703        1.5007476766
  H        49.0670125610       18.6078661625       13.1990922990
  H        13.2471969185       19.0165494231       15.9719686556
  H        29.9616095791       12.4457925478        4.2037874161
  H        28.8954115961       10.5241334463        5.3930667225
  H        25.2507215264       11.2018219458        3.2130196539
  H        26.3340502882       13.1165591658        2.0223433119
  H        27.1827278588       11.6713279432        6.7904225860
  H        31.0126278570       22.7545761119        4.0435694565
  H        32.0258225871       24.6309946968        5.3428086663
  H        35.6916608021       24.1549021163        3.1446073198
  H        34.6569427979       22.2868216004        1.8399193224
  H        33.7005952099       23.5649361349        6.7639375401
  H        25.7148909890        8.5949810093        3.4050296229
  H        30.9381873898       22.7173458764       11.9427239826
  H        31.9673249675       24.5725594181       10.6262483985
  H        35.6117620531       24.1245942247       12.8668424229
  H        34.5660251230       22.2712630859       14.1808092233
  H        33.6737148773       23.5502807606        9.2020836686
  H        40.5974412358       17.0950176780       12.6451498336
  H        32.5148705441       14.1507678105        0.2552669826
  H        29.8964612662       12.5160093148       11.9281466674
  H        28.8577582378       10.6306845592       10.6609088239
  H        25.1939347943       11.1922413689       12.8430628244
  H        26.2514580646       13.0681063122       14.1158377285
  H        27.1705658465       11.6915592214        9.2279992222
  H        33.3039735361       14.2119110529       14.4410112958
  H        33.4092398883       14.4037921194        1.6055240002
  H        32.1633109368       18.5249624742       13.1888724585
  H        30.2298224308       14.1941058279        0.0786456978
  H        16.1183922327        2.9633032306        4.1348458327
  H        14.9531862121        4.8203653912        5.3275761701
  H        17.3661257270        7.6859264065        3.2151812896
  H        18.5148560737        5.8182786620        2.0153790714
  H        16.7536501569        5.7396618305        6.7766231756
  H        44.8286752472       32.1401580791        3.9816948465
  H        45.9379070310       30.3412491700        5.3111129664
  H        43.6817755302       27.3781881843        3.1580728877
  H        42.5991484542       29.1900197406        1.8155128289
  H        44.2306171931       29.4368180361        6.7739545902
  H        14.8508397094        8.5460131234        3.3684185954
  H        44.9003507382       32.2339265908       11.9271348162
  H        46.0252193235       30.4128607789       10.6476386542
  H        43.7626140395       27.4840115586       12.8394889340
  H        42.6448561981       29.3176247983       14.1185259222
  H        44.2687400138       29.4705434746        9.2130315283
  H        35.0722306070       26.6204068604       12.6294100746
  H        36.6050119095       35.1339238471        0.1857905089
  H        16.1438411479        3.0128980886       11.8987920429
  H        14.9742461386        4.8561981081       10.6829901031
  H        17.3954017355        7.7472461394       12.7505577079
  H        18.5425011913        5.8932593469       13.9782554557
  H        16.7647281043        5.7555586038        9.2142014306
  H        36.2785159885       34.4824011987       14.2681616976
  H        36.3806524590       34.2092391132        1.5050429093
  H        40.5799256622       33.2021204314       13.1487189631
  H        17.4707189658        1.9469740779       15.9690828500
  H        28.8002723707       18.9522682435        4.3693000968
  H        28.8249421850       18.7494979052       11.7554060180
  H        31.8686744365       15.8314987261       11.5921456704
  H        31.3264203533       15.4772535945        4.4744840296
  H        28.3915599795       17.3043321320        6.8953972981
  H        29.6731196611       15.0511992531        6.9256704105
  H        30.6192743597       20.1306289131       10.0536564477
  H        32.7587914134       17.8039120283        9.2351768665
  H        26.4766226899       17.7401299888       10.7586969266
  H        18.8531762662        0.8689682426        4.3402969656
  H        40.5278001080       35.2292603452       11.9470785521
  H        42.3239136550       34.4188869970       11.5857830326
  H        22.0878569483        0.6916090679        4.3568952424
  H        11.5969584263       18.7129577201        4.3874821504
  H        52.2647062833       18.4308332823       11.6722580512
  H        49.2545992550       16.4772164666       11.5797015198
  H        10.1502452639       15.7981215519        4.2978859346
  H        50.8496767147       17.6924209789       11.9492366106
  H        10.0459696723       17.3944184476        4.0571441404
  H        20.2142718745        0.0020596140        4.0471973026
  H        39.1834706654       36.1243277240       11.6812776057
 Ni        30.9130285466       17.8360913550       10.7427790990
 Ni        31.1561485486       16.4721206335        8.2426346583
 Ni        30.0164296642       18.8911929420        7.9910468872
 Ni        30.2293162886       17.3522520350        5.3318921227
  O        10.6498731758       14.3651848666       13.4806976542
  O        12.6131213787       14.6575832497       14.5787850479
  O        49.1479312207       16.8460439059       15.9846586971
  O        50.3502526497       20.9358206337       13.6430162444
  O        48.3485607240       20.5933010766       14.6608592532
  O        11.0514185713       17.0539111463       14.4954542521
  O        50.3210233881       20.8816479919        2.4118831221
  O        48.3467628160       20.5867318890        1.3321991385
  O        49.5436295999       18.2484551102        2.0733895366
  O        12.3588958692       18.6245017654        0.0048111136
  O        48.6931831287       14.1486721631       14.7461450566
  O         8.2098625700       14.2103802830        1.3276373811
  O        10.7353670141       14.5067869008        2.6694484411
  O        12.5718203134       14.5828331820        1.3335679297
  O        22.8448610605        2.0442409780       13.4816342273
  O        21.6055351097        3.5925993529       14.5844822334
  O        42.0581107601       34.1372978712       15.9738747334
  O        37.9818866942       33.1382441353       13.5675464465
  O        39.2182152490       31.5764061275       14.6617084032
  O        20.3084467021        1.0396087654       14.4968945097
  O        38.0247073130       33.1856678758        2.4203200258
  O        39.2192257647       31.5838528671        1.3314711581
  O        40.6522639956       33.7692988859        2.0653679114
  O        18.2555343188        1.3759825613        0.0019188037
  O        44.6221982844       35.1005837946       14.7536172988
  O        24.2053644482        0.0000369905        1.3259382840
  O        22.7531583866        2.0582453961        2.5891044025
  O        21.6244891108        3.5962302358        1.3477509452
  O        27.4916393845       18.7528175504       13.4895632790
  O        26.7609431103       16.9349109913       14.6493519994
  O        30.6673488564       19.4037870014        0.0711616154
  O        33.5436595177       16.3375936003       13.5812777472
  O        34.2741166751       18.1672799962       14.7268710341
  O        29.5746484952       17.0647511547       14.5736111068
  O        33.5612044314       16.3394666939        2.4196984988
  O        34.3010166860       18.2420579266        1.4123253529
  O        31.6503883526       18.3145885870        2.1659940446
  O        30.3236919182       15.1605080893        0.0846565985
  O        28.5539366215       21.0340846579       14.8907297551
  O        28.5141522468       20.9571131330        1.4174944515
  O        27.4605401758       18.6775268018        2.6672878871
  O        26.6935295026       16.9313496611        1.4183899680
  O        13.1488539464       18.6929510151        2.5926044783
  O        13.9196393294       16.9162366041        1.4102722429
  O        50.5957965431       19.3501951170        0.0255793914
  O        47.6832435003       16.3270123173        2.4223534923
  O        46.9511950360       18.1756189316        1.3300304772
  O        11.0695707597       17.0155909448        1.4948619266
  O        47.6748671302       16.3359465526       13.6474497367
  O        46.9266730793       18.2359229735       14.6590991406
  O        49.5683823196       18.3177067012       13.9771383966
  O        10.3185410276       15.1002588295        0.0021658325
  O        52.6707704395       21.0279234940        1.2469525273
  O        12.1468597943       20.8911061700       14.6680330793
  O        13.1088076437       18.6134556686       13.3202849958
  O        13.9573974577       16.9868525698       14.6602759377
  O        29.9995096632       14.4298345061        2.6684198170
  O        28.0773777269       14.6583447226        1.4891036040
  O        32.1386603308       16.8574207982        0.0769774290
  O        30.9664268823       20.9508217243        2.4172990492
  O        32.9470771367       20.6019980882        1.3450340153
  O        29.5664410723       17.0786734729        1.5829331997
  O        30.8743167890       20.9434507411       13.6559051996
  O        32.8792838652       20.5858368826       14.6618880271
  O        31.6763971552       18.2670623228       13.9880523537
  O        28.2938025163       18.6783238323        0.0794571823
  O        32.4937039038       14.2116137503        1.3312630039
  O        32.4061480718       14.2218165165       14.8128893580
  O        29.9141445710       14.4309415905       13.4918902397
  O        28.0341251623       14.5902913526       14.7525492348
  O        17.8892105089        1.9666146821        2.6679434610
  O        18.9562320990        3.5271291598        1.4130627508
  O        39.1686813678       34.1387936887        0.0023329313
  O        43.2802277316       33.0589899541        2.3367795816
  O        42.0345751646       31.5064763279        1.2467202687
  O        20.3176280229        1.0366635385        1.4853966022
  O        43.2760745274       33.1825236380       13.5697977900
  O        42.0052786168       31.5840836556       14.5778797001
  O        40.5790775632       33.7749647218       13.9307280653
  O        22.3672813875        1.3846280008        0.0030074576
  O        36.6727457764       35.0997476549        1.2384244004
  O        16.4455077246        0.0642669787       14.6632040184
  O        17.9364498175        2.0433745009       13.3212658060
  O        18.9190467852        3.5931374104       14.6608369114
  O        29.7379899613       18.8344378188       12.0865411019
  O        29.7376825990       18.9782476657        4.0863635674
  O        31.1796652494       16.3274504127       12.0725241180
  O        31.2682843444       16.3357014883        4.0150034941
  O        32.3228561152       17.0030017346        9.5852322116
  O        27.1598319532       17.5828173685       10.0825439042
  O        30.3770445345       15.6941542258        6.7456007883
  O        31.5041191100       17.9525107289        6.9095637394
  O        31.0800654126       19.4226181709        9.5692235149
  O        28.8024109638       18.0948596343        6.5042397225
  O        39.4567725268       35.2437778456       11.9968611588
  O        19.1410813329        0.0044678306        3.9956780246
  O        41.9698537334       35.1730673217       12.0821985387
  O        21.6912116754       -0.0695101357        3.9009818987
  O        51.3649729851       18.6142290411       12.0003843400
  O        10.7511400445       18.7472277666        3.9100096724
  O        50.0792074086       16.4128330345       12.0867073838
  O         9.5244539085       16.4830045509        3.9963226269
 Zr         9.2958009075       16.0528417318       14.1772847354
 Zr        49.8356338824       16.0067668221        1.7516513337
 Zr        22.0731397579        0.0294998632       14.1840793587
 Zr        42.4607849020       35.1530356858        1.8060162684
 Zr        29.6068061540       19.1032954006       14.2525716640
 Zr        29.5913830936       19.1827125461        1.8753539860
 Zr        11.0372988543       19.0521260920        1.8327288308
 Zr        11.0431189912       19.1548992628       14.2463311174
 Zr        31.3469411816       16.0993532301        1.8696421324
 Zr        31.3819514534       16.0263839531       14.2634692572
 Zr        18.6008878383       -0.0020161309        1.7684892348
 Zr        18.5062810473       -0.0081679777       14.2086587404
 Zr        12.3011055190       16.3235775856       15.9852348937
 Zr        48.6152112814       18.8329709963        0.0154424316
 Zr        20.3149964507        2.4728507055       15.9855233588
 Zr        40.6431535794       32.6864495377       15.9731697489
 Zr        28.3540257904       16.3486452292        0.0902358060
 Zr        32.6257605563       18.8400589794        0.0560344271
  H        32.3233912624       18.4607511956        6.7927064486
  O        28.6808983428       15.5354892069       10.9102563226
  H        29.5103645231       15.7094774296       11.4298468195
  H        28.2859910051       14.7448543819       11.3143675204
  O        28.1326275248       19.5694151656        8.6669240885
  H        27.7407697342       19.3323542320        7.7998255616
  H        27.7702108765       18.8567186825        9.2848387341
  O        30.2873617550       20.5135019380        6.4962551843
  H        30.1432847158       20.0773649095        5.6094279008
  H        29.6044283610       21.2010725735        6.5558295017
  H        27.7173665169       16.8180492336       10.4196065190
  H        30.6188047176       15.4838952449        9.1376633265
