     583
 i =      178, E =     -4830.6236175535
  C        11.8582377243       14.0534692214       13.7364852440
  C        12.4556089215       12.8902184677       13.0184590279
  C        11.7042594680       12.1721205276       12.0759051540
  C        12.2805580003       11.1098854130       11.3835012826
  C        13.6207685611       10.7392281603       11.6120132673
  C        14.3534196777       11.4417186021       12.5866938784
  C        13.7805851530       12.5066597361       13.2782789091
  C        14.2605393350        9.6488044309       10.8385102597
  C        14.2560879081        9.6568830321        9.4167958830
  C        13.7426304787       10.7588293066        8.6628191265
  C        49.1263710343       21.2334197451       13.8746502698
  C        48.5496038514       22.4011031628       13.1474607469
  C        49.2998512710       23.0688837191       12.1669124615
  C        48.7328652709       24.1079485172       11.4336982494
  C        47.4021014418       24.5091116443       11.6618998817
  C        46.6708657381       23.8596607690       12.6748237599
  C        47.2333331447       22.8147878787       13.4041961811
  C        46.7719881276       25.5868795777       10.8646329626
  C        46.7612454586       25.5573644122        9.4428781335
  C        47.2610426840       24.4421789355        8.6994344379
  C        14.8604356298        8.5707767496        8.7035079743
  C        14.8914338404        8.5968671003       11.5151192973
  C        49.1127126458       21.2034499134        2.1504369985
  C        48.5273266088       22.3645550045        2.8777158076
  C        49.2668191595       23.0258525617        3.8700715065
  C        48.6904435464       24.0603415915        4.6015463214
  C        47.3597408741       24.4565033274        4.3638521356
  C        46.6389664444       23.8108875519        3.3410422814
  C        47.2125416945       22.7749928124        2.6092642767
  C        46.7214560908       25.5316114156        5.1548171440
  C        46.7334294623       25.5281084228        6.5765057560
  C        47.2487823818       24.4288554315        7.3328821189
  C        40.6202114017       17.1242956137        7.3080037914
  C        40.6346943914       17.1225741207        4.4983955466
  C        11.8825728086       14.0863846848        2.2904594567
  C        12.4717040751       12.9102051417        2.9943535131
  C        11.7144505230       12.1777350196        3.9212541590
  C        12.2809397384       11.0952487922        4.5897332428
  C        13.6194343451       10.7207638083        4.3572593096
  C        14.3569467886       11.4353159863        3.3953171035
  C        13.7916143450       12.5164695936        2.7225495387
  C        14.2532709473        9.6242854078        5.1278241257
  C        14.2522338923        9.6444717170        6.5496700554
  C        13.7420674394       10.7532697938        7.2967706341
  C        22.5118849803        3.2456537256       13.7484254990
  C        23.2244849714        4.3542191624       13.0511078063
  C        24.2223508435        4.0808073500       12.1039171212
  C        24.8450588501        5.1248827806       11.4243813907
  C        24.4856910580        6.4649373958       11.6714689481
  C        23.5167072932        6.7298097306       12.6562769822
  C        22.8894885095        5.6877187490       13.3341901261
  C        25.0845727597        7.5756144096       10.8959133706
  C        25.0549385379        7.5677336663        9.4743911091
  C        24.3533993604        6.5665164912        8.7302144015
  C        38.3028231668       31.9303834442       13.8439433536
  C        37.5729261762       30.8416653217       13.1339114124
  C        36.6134561383       31.1467750503       12.1564963717
  C        35.9951665557       30.1272930431       11.4381556035
  C        36.3219271085       28.7778988294       11.6758397536
  C        37.2521134202       28.4802348851       12.6894405059
  C        37.8744115525       29.4984640044       13.4066733131
  C        35.7176378585       27.6869807795       10.8793707063
  C        35.7447720153       27.7030418195        9.4580079579
  C        36.4492609369       28.7051893682        8.7190589897
  C        25.6753079434        8.6379602021        8.7527545103
  C        25.6774312573        8.6540870770       11.5650290543
  C        38.3273968761       31.9616333461        2.1610555541
  C        37.6021998638       30.8893501117        2.9019182269
  C        36.6706732182       31.2003895702        3.9044552751
  C        36.0560807388       30.1838259593        4.6331418957
  C        36.3583137502       28.8301781920        4.3831699612
  C        37.2674140700       28.5290197545        3.3504473304
  C        37.8842091810       29.5422181017        2.6229909485
  C        35.7469849242       27.7330112747        5.1685177909
  C        35.7592248136       27.7269108963        6.5907429358
  C        36.4558095306       28.7170365195        7.3524717092
  C        46.1356731017       26.6209022077        7.2865932067
  C        46.0874867638       26.5799038992        4.4786976716
  C        22.4596554040        3.2565080977        2.2644739916
  C        23.1495143499        4.3663267244        2.9903822743
  C        24.1457316229        4.0825418823        3.9381854696
  C        24.7693615588        5.1141713289        4.6362119476
  C        24.4177364716        6.4599014134        4.4086968657
  C        23.4445150262        6.7367705110        3.4297028735
  C        22.8157855189        5.7054452785        2.7327681882
  C        25.0458094307        7.5604352268        5.1823018322
  C        25.0358488831        7.5588446510        6.6052870718
  C        24.3416976923        6.5637970764        7.3635891023
  C        26.6115336966       17.8890193860       13.7515917212
  C        25.3059761069       17.9261332656       13.0190260835
  C        25.0104082050       18.9651061023       12.1189742566
  C        23.7962082235       18.9756772535       11.4315113098
  C        22.8418096962       17.9586985429       11.6317895112
  C        23.1338028779       16.9422335170       12.5605746776
  C        24.3497724149       16.9211010824       13.2401912330
  C        21.5663484007       17.9438473548       10.8733144116
  C        21.5704892846       17.9375759825        9.4523490525
  C        22.7795095107       17.8356654845        8.6936365087
  C        34.4172643207       17.2244530625       13.8758882028
  C        35.7109630769       17.1724802629       13.1370398377
  C        35.9069878759       16.2217081273       12.1229960787
  C        37.0939544032       16.2033579628       11.3963772274
  C        38.1156713646       17.1372799063       11.6590863790
  C        37.9211115060       18.0677943747       12.6980385767
  C        36.7334532067       18.0893227534       13.4254540518
  C        39.3712669927       17.1466234454       10.8744235700
  C        39.3657445075       17.1601054922        9.4519849654
  C        38.1590851806       17.2831396585        8.6934452888
  C        20.3238968105       17.9492164671        8.7453707175
  C        20.3440878288       17.9318395145       11.5589430892
  C        34.4425568837       17.2344559055        2.1910983305
  C        35.7463048867       17.1293165182        2.9040478155
  C        35.9482163153       16.1633366334        3.9015917630
  C        37.1398508028       16.1461012841        4.6231415661
  C        38.1558185967       17.0864106159        4.3675738482
  C        37.9611496624       18.0209686902        3.3320608471
  C        36.7696951190       18.0476770793        2.6144862997
  C        39.4032491733       17.1135386890        5.1634228987
  C        39.3822233535       17.1411576343        6.5850641175
  C        38.1660318826       17.2700799730        7.3270049364
  C        35.1287262798       26.6488450680        7.2967393180
  C        35.1538739375       26.6624991031        4.4873084677
  C        26.5690674046       17.8260235083        2.3298220869
  C        25.2547293447       17.8767785279        3.0336203231
  C        24.9708894504       18.9159229701        3.9325092364
  C        23.7512732827       18.9470458113        4.6028041696
  C        22.7881486134       17.9402654538        4.3953030566
  C        23.0656987976       16.9244627287        3.4633951341
  C        24.2859611019       16.8910241764        2.7915559609
  C        21.5235283419       17.9285491046        5.1667184856
  C        21.5473539638       17.9286245271        6.5873014372
  C        22.7680925622       17.8307247543        7.3277030927
  C        14.0442697040       17.8302633846        2.2907522073
  C        15.3498825354       17.8911518422        3.0124698213
  C        15.6072428649       18.9007807776        3.9523968175
  C        16.8170966534       18.9253509560        4.6428614093
  C        17.8011148467       17.9431575785        4.4132820447
  C        17.5489588658       16.9576686859        3.4408318452
  C        16.3383280441       16.9286085263        2.7523795931
  C        19.0692688107       17.9295740398        5.1811839846
  C        19.0664014085       17.9274047838        6.6029674841
  C        17.8588611882       17.8229813751        7.3629109493
  C        46.8028630374       17.2167821909        2.1620872831
  C        45.5106893468       17.1503134884        2.9019066713
  C        45.3061183540       16.1746246170        3.8899792651
  C        44.1220895595       16.1533140598        4.6220545406
  C        43.1123242301       17.1072172643        4.3880602329
  C        43.3133127966       18.0605617426        3.3714498811
  C        44.4982288068       18.0863358764        2.6405854000
  C        41.8590655744       17.1188139755        5.1764459668
  C        41.8663694801       17.1312010200        6.5983520856
  C        43.0756492983       17.2329769927        7.3555443261
  C        20.3122110078       17.9446084177        7.3114397076
  C        20.2931204038       17.9100174260        4.4990490619
  C        46.7830700177       17.2334250953       13.8795629322
  C        45.4815800549       17.1335338429       13.1589038241
  C        45.2628307723       16.1425238894       12.1893993400
  C        44.0752675571       16.1210927565       11.4614793066
  C        43.0745122107       17.0875342333       11.6840952090
  C        43.2843031884       18.0485196363       12.6912365244
  C        44.4728397210       18.0765805627       13.4143879662
  C        41.8269092858       17.1136846214       10.8873881971
  C        41.8499539658       17.1280022115        9.4657869638
  C        43.0680534149       17.2281885655        8.7224300870
  C        46.1534097515       26.6373376958        8.7211319020
  C        46.1620350375       26.6559675194       11.5307871916
  C        14.0431612139       17.8291607062       13.7015245897
  C        15.3622720550       17.8990269930       13.0045179495
  C        15.6369100695       18.9187001773       12.0811614273
  C        16.8639960591       18.9550266702       11.4224836567
  C        17.8438347012       17.9706691381       11.6617599398
  C        17.5751878023       16.9774187754       12.6208809923
  C        16.3500078788       16.9409922803       13.2831934693
  C        19.1112435112       17.9512504834       10.8924299630
  C        19.0888154656       17.9370949566        9.4707252970
  C        17.8695684343       17.8271045919        8.7290031327
  C        28.8045291448       14.0888772105        2.3929911734
  C        28.1895842882       12.9181210094        3.0820748735
  C        28.9120735870       12.1740368753        4.0268833671
  C        28.3085071238       11.1028869538        4.6812690875
  C        26.9701996743       10.7506295624        4.4131977236
  C        26.2702989912       11.4738807271        3.4307310782
  C        26.8705203486       12.5463332554        2.7761369931
  C        26.2981228754        9.6734250136        5.1759404258
  C        26.2825002081        9.7043760728        6.5969307008
  C        26.7847482694       10.8194084659        7.3400914340
  C        32.1753689888       21.2348044718        2.1585956036
  C        32.7619488681       22.4024453185        2.8792880622
  C        32.0045481381       23.0901669938        3.8414199697
  C        32.5734688909       24.1311724213        4.5701288102
  C        33.9110653379       24.5156939281        4.3528519967
  C        34.6490445660       23.8471472789        3.3582263869
  C        34.0853333098       22.7983840307        2.6346595726
  C        34.5385173421       25.5945807526        5.1495861012
  C        34.5327288369       25.5663066982        6.5708140990
  C        34.0236064592       24.4521296973        7.3098756734
  C        25.6714388023        8.6288508221        7.3179189270
  C        25.6627368732        8.6208444765        4.5043073466
  C        32.1052106097       21.2291556403       13.8791915401
  C        32.6949773275       22.3795815440       13.1343455520
  C        31.9568122705       23.0409862987       12.1408353413
  C        32.5346534911       24.0721118493       11.4041115633
  C        33.8641366245       24.4715662498       11.6434470355
  C        34.5852657485       23.8231851579       12.6643164990
  C        34.0122649094       22.7863847295       13.3960451461
  C        34.5024635477       25.5533858233       10.8585771368
  C        34.5143416149       25.5451191451        9.4367236862
  C        34.0141563195       24.4416441697        8.6763060297
  C        40.6117589521       17.1283041204        8.7428670112
  C        40.5958745274       17.1396723117       11.5530501477
  C        28.7232590601       14.0973282036       13.8141838573
  C        28.1025463031       12.9540955852       13.0795162190
  C        28.8332593775       12.2645463985       12.0990221757
  C        28.2523741509       11.2081295202       11.4019751196
  C        26.9237090376       10.8130194674       11.6580973300
  C        26.2099137350       11.4905081108       12.6649608978
  C        26.7893950473       12.5480252130       13.3647159843
  C        26.2844658347        9.7193170539       10.8864783123
  C        26.2761931563        9.7285988994        9.4640316387
  C        26.7782942938       10.8328804269        8.7059659868
  C        18.1355028337        3.1809107087        2.3222891619
  C        17.4062558637        4.2782249919        3.0210620338
  C        16.3902731065        3.9999057063        3.9482705449
  C        15.7425568347        5.0399099155        4.6117777337
  C        16.0947606404        6.3835637330        4.3723063785
  C        17.0844785378        6.6530549345        3.4089044147
  C        17.7335827965        5.6156928468        2.7438862215
  C        15.4703379252        7.4912890843        5.1352632272
  C        15.4858637928        7.4908387453        6.5569639206
  C        16.1876815473        6.4973959313        7.3101160281
  C        42.9459053288       31.8595136624        2.0780569028
  C        43.6463491687       30.7718577200        2.8218680286
  C        44.5921300706       31.0931526705        3.8077191525
  C        45.1978417959       30.0875862655        4.5553460713
  C        44.8711061733       28.7345517074        4.3407304670
  C        43.9450609751       28.4202197204        3.3277119067
  C        43.3362647530       29.4253842750        2.5796879732
  C        45.4886504132       27.6552536990        5.1439475923
  C        45.4930601832       27.6810590901        6.5656380079
  C        44.8062605077       28.6893113620        7.3122477825
  C        14.8566565799        8.5632239318        7.2692760442
  C        14.8746018748        8.5627405381        4.4566192796
  C        42.9464548829       31.9615893333       13.8038701710
  C        43.6916537220       30.8854828941       13.0903951468
  C        44.6565290524       31.1913944789       12.1183634337
  C        45.2780467259       30.1718133355       11.4006305105
  C        44.9539945579       28.8215066840       11.6379829889
  C        44.0202078492       28.5238202848       12.6484771365
  C        43.3919724509       29.5405813774       13.3606829531
  C        45.5630324690       27.7241206973       10.8527195657
  C        45.5335947298       27.7175830474        9.4314170554
  C        44.8275200037       28.7079631566        8.6784306403
  C        35.1204889635       26.6370405013        8.7313888531
  C        35.1149328631       26.6112104985       11.5410239517
  C        18.1486923488        3.2470223361       13.7015461539
  C        17.4301252883        4.3439325181       12.9921302655
  C        16.4147539654        4.0526866609       12.0687594735
  C        15.7664519793        5.0833247490       11.3933350650
  C        16.1213058103        6.4285108493       11.6159162071
  C        17.1128764201        6.7118692692       12.5729657030
  C        17.7605609421        5.6829526925       13.2527269774
  C        15.4907352380        7.5242272266       10.8435181849
  C        15.4968901957        7.5077981193        9.4223831897
  C        16.1939096272        6.5062465717        8.6757210445
  H        10.6723859713       12.4668231900       11.8982776857
  H        11.6943598325       10.5519832579       10.6564358893
  H        15.3899866746       11.1660236964       12.7694244194
  H        14.3495145064       13.0688760913       14.0148925782
  H        13.3750345317       11.6307366791        9.1960746428
  H        50.3227164932       22.7492013896       11.9824924870
  H        49.3193894273       24.6235835183       10.6764085270
  H        45.6411071273       24.1598351099       12.8574723985
  H        46.6619784879       22.2890139433       14.1656680966
  H        47.6292383488       23.5756643964        9.2411341024
  H        14.8713828110        8.5877872658       12.6034198861
  H        50.2870830046       22.7034781215        4.0645559135
  H        49.2689084149       24.5762448370        5.3646898304
  H        45.6092291694       24.1073931324        3.1526275525
  H        46.6512928164       22.2521845771        1.8384473080
  H        47.6071952437       23.5515742049        6.8019978815
  H        40.6403074556       17.0780756036        3.4109773428
  H        48.6864464607       14.0948327120       15.7947749558
  H        10.6811969113       12.4672953235        4.0991831478
  H        11.6891941982       10.5253667198        5.3028805254
  H        15.3919623023       11.1564740736        3.2085114743
  H        14.3635047470       13.0849668813        1.9929942773
  H        13.3746646939       11.6216383012        6.7581418055
  H        47.9301116775       14.2165654565        1.7160784867
  H        47.7793806164       14.3707598997       14.4891181486
  H        49.0812629965       18.5517420438        2.8716330279
  H        10.4148908978       14.1343581146        0.0036835976
  H        24.4876883047        3.0438574591       11.9100316202
  H        25.6186877474        4.9122325925       10.6897145692
  H        23.2316940783        7.7610411227       12.8540857632
  H        22.1189482908        5.8832501940       14.0758871642
  H        23.7930273717        5.8102640953        9.2721168697
  H        36.3771859974       32.1902830422       11.9621519916
  H        35.2503671692       30.3669486120       10.6824450155
  H        37.5117489216       27.4408510796       12.8794656393
  H        38.6181732261       29.2770032501       14.1684057338
  H        37.0165316425       29.4542383675        9.2638443375
  H        25.7140680808        8.6375192360       12.6528285551
  H        36.4490588958       32.2451800204        4.1101786350
  H        35.3287079523       30.4313115449        5.4031783719
  H        37.5132292921       27.4881748177        3.1504823113
  H        38.6085617458       29.3139054539        1.8449120215
  H        37.0289714881       29.4747257267        6.8259768443
  H        46.1085750832       26.5870572466        3.3906521293
  H        44.6684354436       35.1162284322       15.8087597683
  H        24.4226361748        3.0447467962        4.1094706855
  H        25.5458468098        4.8864030027        5.3633790166
  H        23.1611786171        7.7708995930        3.2445104694
  H        22.0486817416        5.9170681447        1.9914477887
  H        23.7713590227        5.8063290786        6.8337722965
  H        44.9545879989       34.3911187660        1.7007219826
  H        44.9022368654       34.2071029909       14.4852807104
  H        40.6658049221       33.2087818265        2.8580569091
  H        23.1504498381        1.9580886541        0.0108601007
  H        25.7352547533       19.7668207220       11.9862433825
  H        23.5692268867       19.7842468912       10.7396729851
  H        22.4068632317       16.1480568496       12.7189105201
  H        24.5882553724       16.1262365856       13.9433140592
  H        23.7227431392       17.7268322829        9.2212968096
  H        35.1129494031       15.5095546634       11.9111887611
  H        37.2436549852       15.4568669500       10.6194571317
  H        38.7008815106       18.7975152917       12.9062357492
  H        36.5691089332       18.8217257347       14.2124185019
  H        37.2200196279       17.4149919380        9.2227982133
  H        20.3517608842       17.9599993519       12.6471691913
  H        35.1602165562       15.4523297853        4.1388117576
  H        37.2867285500       15.3982538037        5.3993165702
  H        38.7388182291       18.7536957455        3.1269301142
  H        36.5981347999       18.7901572642        1.8390398187
  H        37.2321409808       17.3869065691        6.7844927692
  H        35.1255153467       26.6867746220        3.3995621122
  H        28.5155221947       21.0844245003       15.9739193465
  H        25.7167363518       19.6926733694        4.0858003891
  H        23.5286163246       19.7556207148        5.2958259143
  H        22.3289084936       16.1407031718        3.2998116768
  H        24.5180991679       16.0965254764        2.0863057735
  H        23.7009241175       17.7198211205        6.7826697932
  H        28.9933471891       21.7186624567        1.7788221866
  H        29.1415068082       21.7537639701       14.6063170883
  H        32.1169473743       18.5536790743        2.9882501154
  H        27.4100789697       19.0899095350        0.1077022491
  H        14.8485023326       19.6604524522        4.1264448222
  H        17.0149373601       19.7133267113        5.3663766821
  H        18.2998025171       16.1919888937        3.2567694550
  H        16.1290517134       16.1553517350        2.0170559269
  H        16.9173229246       17.7062807317        6.8341014423
  H        46.0921436413       15.4470185192        4.0778669907
  H        43.9644144496       15.3898597099        5.3807141695
  H        42.5410616733       18.8041084573        3.1855048236
  H        44.6695414681       18.8375112241        1.8731268684
  H        44.0168272562       17.3451244048        6.8249359431
  H        20.2873445439       17.9327619606        3.4107880319
  H        46.0386603849       15.4020462269       12.0082589432
  H        43.9099114370       15.3507658761       10.7113699432
  H        42.5181490010       18.7997414673       12.8714606504
  H        44.6533183322       18.8381443503       14.1690617309
  H        44.0034330957       17.3354239369        9.2640048939
  H        46.1985722977       26.6823341829       12.6182462260
  H        52.7406267948       21.0624566809        0.1997218144
  H        14.8789565757       19.6768895250       11.8968097272
  H        17.0762272998       19.7494532759       10.7101636007
  H        18.3222875008       16.2098200663       12.8121203683
  H        16.1272332619       16.1624618722       14.0088475647
  H        16.9362939657       17.7135853073        9.2723685863
  H        52.3213240243       21.6728216924       14.2895618649
  H        52.0125233528       21.7016397367        1.5006870364
  H        49.0657485375       18.6074450382       13.1991146366
  H        13.2463031478       19.0172773817       15.9709598310
  H        29.9447672455       12.4466416561        4.2341853188
  H        28.8701186462       10.5257190570        5.4127284292
  H        25.2365612757       11.2108801608        3.2159696766
  H        26.3280433745       13.1263505893        2.0336162340
  H        27.1508589257       11.6855743631        6.7972171108
  H        30.9732449006       22.7882922835        4.0131447682
  H        31.9824128817       24.6621968370        5.3133008872
  H        35.6843498905       24.1345277102        3.1864351262
  H        34.6611181617       22.2560346721        1.8882180342
  H        33.6641628140       23.5844464547        6.7643762528
  H        25.6953036372        8.5982466890        3.4164363802
  H        30.9325764575       22.7267504701       11.9533217114
  H        31.9559557819       24.5854566232       10.6392908625
  H        35.6147271515       24.1202352117       12.8536137015
  H        34.5743073850       22.2631008358       14.1660843419
  H        33.6471999808       23.5659111407        9.2041909894
  H        40.5893887308       17.0990797119       12.6406568107
  H        32.5228407691       14.1534997544        0.2576610312
  H        29.8579755452       12.5704528844       11.9007427153
  H        28.8291761333       10.6705665274       10.6524541038
  H        25.1824838709       11.1979400725       12.8718626770
  H        26.2345891563       13.0829967809       14.1319963837
  H        27.1380054091       11.7101313139        9.2355816774
  H        33.2973443327       14.2062988685       14.4308534049
  H        33.4018665724       14.3594020104        1.6379149557
  H        32.0994542967       18.5354826024       13.1601607730
  H        30.2194640569       14.1872930879        0.0797414065
  H        16.1179933713        2.9634129066        4.1344261771
  H        14.9528449293        4.8205688515        5.3271641418
  H        17.3671051145        7.6859118577        3.2160171016
  H        18.5159112348        5.8182029828        2.0163125953
  H        16.7542614218        5.7400970547        6.7765761487
  H        44.8286760215       32.1402029239        3.9817396087
  H        45.9379164599       30.3413073656        5.3110996445
  H        43.6821149465       27.3781784844        3.1577855348
  H        42.5995100440       29.1900305154        1.8151617431
  H        44.2310570908       29.4371848389        6.7739305183
  H        14.8505082930        8.5456435176        3.3684134946
  H        44.9003299687       32.2340548242       11.9271281054
  H        46.0251898481       30.4130512616       10.6476307201
  H        43.7629948938       27.4841064793       12.8398051108
  H        42.6452967569       29.3177323738       14.1189391466
  H        44.2691683663       29.4709782113        9.2129919083
  H        35.0757070226       26.6230853443       12.6286168027
  H        36.6051659459       35.1340593408        0.1857156162
  H        16.1435202093        3.0131175851       11.8992156055
  H        14.9739726583        4.8565033220       10.6834085216
  H        17.3964871948        7.7473268504       12.7497159634
  H        18.5436014884        5.8932764560       13.9773513191
  H        16.7653677551        5.7560637885        9.2142226306
  H        36.2786169513       34.4826615643       14.2680394912
  H        36.3809397473       34.2091756353        1.5047950127
  H        40.5807687563       33.2029083889       13.1486016644
  H        17.4707788236        1.9471335792       15.9690887751
  H        28.7648517738       18.8746597309        4.3549997622
  H        28.8880488577       18.7043568766       11.7653670488
  H        31.6023431531       15.7867134550       11.5675003447
  H        31.0549930095       15.4438339755        4.4345941905
  H        28.5263890577       17.4417266684        7.0016636359
  H        29.6940722154       15.2781459034        6.6989436147
  H        30.5301652514       20.0044676641       10.1200167831
  H        32.8424696297       17.4678406603        9.5827598935
  H        26.5350859598       17.7233977355       10.8164490339
  H        18.8533383978        0.8687937826        4.3404414666
  H        40.5281005360       35.2290244051       11.9468970194
  H        42.3248811513       34.4196677236       11.5850807744
  H        22.0877857465        0.6918393578        4.3567687886
  H        11.5968613770       18.7131136674        4.3872881669
  H        52.2643645544       18.4305724460       11.6722881182
  H        49.2551925340       16.4765445971       11.5790900296
  H        10.1496916684       15.7980954876        4.2981483259
  H        50.8491532237       17.6922712679       11.9493035328
  H        10.0456814804       17.3943930478        4.0571487669
  H        20.2146480848        0.0020814432        4.0470682096
  H        39.1839320772       36.1245460920       11.6812696811
 Ni        30.9878313016       17.8861791702       10.9878943432
 Ni        31.2845957738       16.3455671625        8.1635895193
 Ni        30.0506390176       18.8251741869        8.0806182471
 Ni        30.0993274649       17.2831668433        5.3257268414
  O        10.6497513915       14.3652104571       13.4806824484
  O        12.6131007478       14.6575296365       14.5787220651
  O        49.1477835749       16.8460798825       15.9845314159
  O        50.3501048858       20.9361259235       13.6431652627
  O        48.3484880945       20.5933104013       14.6608503409
  O        11.0507314629       17.0541445440       14.4952413636
  O        50.3208107288       20.8817070660        2.4118519638
  O        48.3466824425       20.5867212749        1.3321074402
  O        49.5433735355       18.2485040332        2.0734210238
  O        12.3584529089       18.6243891522        0.0047249557
  O        48.6931588005       14.1487405332       14.7460958053
  O         8.2098334720       14.2103230854        1.3275895183
  O        10.7352985059       14.5067591458        2.6694434423
  O        12.5717175500       14.5828597215        1.3335561467
  O        22.8448891759        2.0446608309       13.4818077670
  O        21.6051426594        3.5922815467       14.5853003651
  O        42.0582060049       34.1374641619       15.9738900769
  O        37.9819204706       33.1387355657       13.5675833576
  O        39.2180858101       31.5763481797       14.6615336139
  O        20.3085601320        1.0397556546       14.4970093270
  O        38.0244704132       33.1856254892        2.4202867788
  O        39.2185860585       31.5832436461        1.3320940087
  O        40.6522700477       33.7692929532        2.0653142132
  O        18.2555666020        1.3761105834        0.0019485655
  O        44.6221773238       35.1006209014       14.7536192280
  O        24.2053598451        0.0000692153        1.3258912655
  O        22.7530034049        2.0583968843        2.5894408739
  O        21.6245018931        3.5962506856        1.3480910038
  O        27.5021003978       18.7519560962       13.4131541124
  O        26.7303398935       17.0006573892       14.6546393080
  O        30.6649121883       19.4079446263        0.0801615106
  O        33.5406571110       16.3392330796       13.5872509454
  O        34.2703631220       18.1683631083       14.7309496495
  O        29.5670895853       17.0723104671       14.5767588529
  O        33.5493815676       16.3421777405        2.4233221361
  O        34.2976687920       18.2384485281        1.4110857252
  O        31.6502984555       18.3129592509        2.1710282383
  O        30.3164219984       15.1537370279        0.0928437939
  O        28.5528121576       21.0345284431       14.8990650144
  O        28.5147476310       20.9530402118        1.4180180648
  O        27.4575308373       18.6801494567        2.6643968747
  O        26.6929619916       16.9311392865        1.4190419689
  O        13.1473981493       18.6935575732        2.5918834112
  O        13.9185500497       16.9159537540        1.4093134806
  O        50.5951959484       19.3501777513        0.0252520895
  O        47.6831849387       16.3270605650        2.4221943854
  O        46.9515493949       18.1756802760        1.3297241059
  O        11.0689436317       17.0158520994        1.4948293902
  O        47.6739198919       16.3362474501       13.6469518179
  O        46.9258729270       18.2358643645       14.6584884648
  O        49.5678599922       18.3177313031       13.9768771375
  O        10.3182953815       15.1003006325        0.0021597411
  O        52.6706461160       21.0279286939        1.2469322289
  O        12.1468052670       20.8910371034       14.6679462963
  O        13.1080369077       18.6137329053       13.3201885548
  O        13.9570528070       16.9867913951       14.6597813958
  O        29.9910120994       14.4366485101        2.7290156281
  O        28.0874878865       14.6553302521        1.4976526125
  O        32.0826188966       16.8723675125        0.0822402607
  O        30.9601400742       20.9380574192        2.4252633558
  O        32.9420874159       20.6052099443        1.3484128220
  O        29.5654859918       17.0761839070        1.5781702905
  O        30.8741092504       20.9481883204       13.6590155217
  O        32.8791936498       20.5893030242       14.6650162162
  O        31.6535776057       18.3092328933       13.9969584957
  O        28.2906838181       18.6813091652        0.0804775907
  O        32.4880824005       14.2134956290        1.3324762702
  O        32.4046925518       14.2237114372       14.8147455167
  O        29.9073937629       14.4363711464       13.4960473542
  O        28.0069525347       14.6499757388       14.7326895737
  O        17.8892002565        1.9666535057        2.6679526145
  O        18.9562070378        3.5271943778        1.4131069839
  O        39.1686623109       34.1387425340        0.0023636044
  O        43.2802322504       33.0589625304        2.3367977746
  O        42.0345009210       31.5064643538        1.2467396775
  O        20.3177451457        1.0367487427        1.4854010411
  O        43.2760217374       33.1825914575       13.5698100955
  O        42.0052382823       31.5841105901       14.5779139010
  O        40.5792308488       33.7752642846       13.9309700942
  O        22.3674534763        1.3846813104        0.0030439675
  O        36.6727972650       35.0997949164        1.2383963342
  O        16.4456065897        0.0644170745       14.6632273300
  O        17.9365272040        2.0435257207       13.3212175263
  O        18.9190307000        3.5932000748       14.6608645438
  O        29.7877677012       18.9021066692       12.0844055555
  O        29.6994960038       18.7562073541        4.0900325578
  O        31.1337582097       16.4126307248       12.1537826738
  O        31.1849644338       16.3447334265        4.0746591092
  O        32.1316236170       16.8463659236        9.8244470325
  O        27.1627188628       17.5808945000       10.0787094260
  O        30.4686023105       15.8350270688        6.5121091478
  O        31.6124659193       18.1057227239        7.3333485519
  O        31.0052218941       19.2745427262        9.6759103066
  O        29.0203605242       18.1695975767        6.5776709020
  O        39.4569211844       35.2438946431       11.9968477736
  O        19.1412362074        0.0043610362        3.9956360999
  O        41.9696563622       35.1728630064       12.0821432831
  O        21.6911674469       -0.0693776726        3.9009517350
  O        51.3647385976       18.6142232017       12.0003684737
  O        10.7510284369       18.7473574598        3.9099515976
  O        50.0796157684       16.4129403752       12.0865672157
  O         9.5242269888       16.4831206608        3.9963095042
 Zr         9.2942118905       16.0528439393       14.1769833173
 Zr        49.8342688018       16.0067073905        1.7519126336
 Zr        22.0735530283        0.0301341475       14.1838867925
 Zr        42.4612182493       35.1534843671        1.8061324510
 Zr        29.6127521412       19.1172231844       14.2839750795
 Zr        29.5902482367       19.1631179333        1.8764218681
 Zr        11.0355134292       19.0524704483        1.8323365950
 Zr        11.0416211915       19.1550941473       14.2465551702
 Zr        31.3397321741       16.0946368057        1.8834180942
 Zr        31.3759653210       16.0279836671       14.2772901158
 Zr        18.6012878959       -0.0015212973        1.7684261183
 Zr        18.5066973766       -0.0074908676       14.2087559520
 Zr        12.2987728133       16.3231583970       15.9849357239
 Zr        48.6133969056       18.8325420307        0.0151426205
 Zr        20.3155872641        2.4734357363       15.9856275248
 Zr        40.6437418339       32.6870435448       15.9733239248
 Zr        28.3457082959       16.3501000729        0.0849830929
 Zr        32.6334009144       18.8418317981        0.0545337035
  H        32.3382413715       18.6275617232        7.7231119672
  O        33.4196826934       15.0960505370        5.6630220246
  H        32.8678927155       15.0188776154        6.4634447443
  H        32.9583908746       15.7926474309        5.1552930426
  O        28.3151459241       19.5756405318        8.7538087479
  H        27.8259389236       19.7269258570        7.9241015866
  H        27.8254742956       18.8569403503        9.2565043318
  O        30.4160826137       20.7451262249        6.0726501195
  H        30.2951966353       20.0906142428        5.3443258850
  H        31.2402477842       21.2029691560        5.8447101370
  H        27.8257373880       16.9440141227       10.4039144612
  H        30.9585761974       15.0473372870        8.7456627638
