     577
 i =      474, E =     -4796.1348144401
  C        11.8585238052       14.0533901757       13.7364658159
  C        12.4558997280       12.8903023158       13.0184623248
  C        11.7045785139       12.1721664376       12.0758779669
  C        12.2809513844       11.1099955393       11.3834868251
  C        13.6211879621       10.7393721427       11.6119969630
  C        14.3538146633       11.4419627881       12.5866207657
  C        13.7809573132       12.5068904630       13.2782037782
  C        14.2608934872        9.6489121126       10.8384986886
  C        14.2562788445        9.6569654205        9.4167926694
  C        13.7431376627       10.7590683474        8.6628335790
  C        49.1265584380       21.2333634770       13.8745474065
  C        48.5499134129       22.4011539532       13.1475590815
  C        49.2998858187       23.0683901690       12.1664117708
  C        48.7329135395       24.1074711063       11.4332154535
  C        47.4024050231       24.5092611836       11.6619427596
  C        46.6715414481       23.8604671887       12.6755949974
  C        47.2339933019       22.8155984629       13.4049661670
  C        46.7721950543       25.5869105439       10.8646212134
  C        46.7614324579       25.5573264800        9.4428620964
  C        47.2613282606       24.4422211846        8.6993596662
  C        14.8604237730        8.5707588115        8.7034944500
  C        14.8916961369        8.5969183244       11.5151031508
  C        49.1129429231       21.2035581760        2.1504552647
  C        48.5276737241       22.3647724929        2.8775021881
  C        49.2668965285       23.0255190098        3.8704499809
  C        48.6905293267       24.0600119522        4.6019054601
  C        47.3600991975       24.4568151315        4.3636634053
  C        46.6397098672       23.8118874279        3.3401182327
  C        47.2132750299       22.7760254792        2.6083099306
  C        46.7217156332       25.5317653876        5.1547183628
  C        46.7336585812       25.5281409709        6.5764119761
  C        47.2490683451       24.4289265033        7.3328070631
  C        40.6221330291       17.1049010729        7.3121111102
  C        40.6337951458       17.1099533009        4.5023856626
  C        11.8827889104       14.0863098021        2.2904451938
  C        12.4718713201       12.9102770442        2.9943261193
  C        11.7147811219       12.1780772709        3.9215997573
  C        12.2812835575       11.0956289434        4.5900717504
  C        13.6196555574       10.7208263908        4.3572561095
  C        14.3569808496       11.4351073815        3.3949505823
  C        13.7916463309       12.5162541339        2.7221847794
  C        14.2534275169        9.6243281643        5.1278132808
  C        14.2523682773        9.6445599484        6.5496590109
  C        13.7425223224       10.7534949042        7.2967840673
  C        22.5118782320        3.2455614689       13.7485209706
  C        23.2246635205        4.3539684048       13.0511450061
  C        24.2236739381        4.0801977338       12.1052716772
  C        24.8468453071        5.1239668997       11.4257012159
  C        24.4868527088        6.4640747499       11.6714724215
  C        23.5166254297        6.7293602902       12.6549708777
  C        22.8889829653        5.6875582509       13.3329437406
  C        25.0861676007        7.5746019593       10.8960222811
  C        25.0573070402        7.5665688557        9.4744986686
  C        24.3578754134        6.5642574771        8.7298038329
  C        38.3032627247       31.9297613854       13.8436007938
  C        37.5756628472       30.8400307777       13.1334945393
  C        36.6198927418       31.1424198990       12.1515965995
  C        36.0054231019       30.1209016058       11.4327664196
  C        36.3317663273       28.7721355962       11.6748144440
  C        37.2576372191       28.4774374775       12.6933038621
  C        37.8764779204       29.4975006325       13.4106621341
  C        35.7327976052       27.6784209332       10.8782894769
  C        35.7666704615       27.6909272237        9.4569374256
  C        36.4695695241       28.6942807175        8.7181729957
  C        25.6762025860        8.6379205076        8.7532892000
  C        25.6782498382        8.6532331900       11.5656797164
  C        38.3271991340       31.9612412713        2.1608201985
  C        37.6030393790       30.8880155335        2.9004821119
  C        36.6778544809       31.1964344009        3.9096942288
  C        36.0668578807       30.1778032371        4.6385664106
  C        36.3661266276       28.8246764129        4.3820765601
  C        37.2674942076       28.5264315552        3.3416406023
  C        37.8809393537       29.5414704085        2.6141543516
  C        35.7611415341       27.7243130386        5.1677941767
  C        35.7816629625       27.7140202331        6.5898864274
  C        36.4762732405       28.7054740660        7.3514796857
  C        46.1357053248       26.6207892829        7.2865564133
  C        46.0876149522       26.5800421500        4.4786617981
  C        22.4600926014        3.2567348423        2.2644280831
  C        23.1509648372        4.3666153745        2.9897717102
  C        24.1486752351        4.0828495194        3.9360536683
  C        24.7729657350        5.1143597170        4.6338192005
  C        24.4205093468        6.4601990084        4.4079749742
  C        23.4458822537        6.7370508566        3.4303085300
  C        22.8166253147        5.7058544755        2.7334847566
  C        25.0485043283        7.5607561110        5.1820956870
  C        25.0386663562        7.5585350248        6.6051825593
  C        24.3465203315        6.5618318113        7.3631567343
  C        26.6039724073       17.8943065753       13.7774395352
  C        25.3025842205       17.9496377952       13.0443194895
  C        25.0373437374       18.9645024452       12.1109272023
  C        23.8252919863       18.9876105923       11.4220683999
  C        22.8439575128       18.0005505656       11.6474297263
  C        23.1066750724       17.0079595220       12.6097193547
  C        24.3195833409       16.9791278691       13.2953279391
  C        21.5707996757       17.9869732992       10.8841234500
  C        21.5722008944       17.9668728015        9.4624560482
  C        22.7796647073       17.8534204458        8.7029637224
  C        34.4210800146       17.2235318310       13.8808845499
  C        35.7166428663       17.1694756324       13.1429860070
  C        35.9185250112       16.2062040304       12.1421174954
  C        37.1044129076       16.1865633411       11.4136710752
  C        38.1200478223       17.1302321077       11.6638670005
  C        37.9204541448       18.0733271857       12.6900306996
  C        36.7328120146       18.0970340067       13.4178273076
  C        39.3754567854       17.1352836940       10.8790790761
  C        39.3692753359       17.1434279798        9.4570697456
  C        38.1617666552       17.2671578735        8.7001102529
  C        20.3256518122       17.9733856755        8.7545082129
  C        20.3468808993       17.9799626697       11.5676016959
  C        34.4421740777       17.2365143758        2.1924979241
  C        35.7437107722       17.1369530500        2.9134177690
  C        35.9481864936       16.1628107369        3.9019262380
  C        37.1389174829       16.1353633735        4.6239252947
  C        38.1538218232       17.0806733546        4.3770807014
  C        37.9556263513       18.0270784470        3.3542828334
  C        36.7642393805       18.0600331717        2.6360358539
  C        39.4034814932       17.1000730039        5.1695728969
  C        39.3835560133       17.1244874930        6.5907407161
  C        38.1681079749       17.2554463370        7.3337289924
  C        35.1596463700       26.6307830917        7.2953248001
  C        35.1640304928       26.6563959821        4.4868132287
  C        26.5691517979       17.8247169723        2.3318842584
  C        25.2558461990       17.8724939853        3.0390951736
  C        24.9675810242       18.9161293577        3.9315216732
  C        23.7484217878       18.9459830832        4.6030169773
  C        22.7893213752       17.9334729453        4.4036021059
  C        23.0717925111       16.9121592382        3.4792422446
  C        24.2915744717       16.8801664500        2.8059362641
  C        21.5240176452       17.9243523580        5.1747631276
  C        21.5479027426       17.9340297625        6.5954243838
  C        22.7683183777       17.8379702893        7.3369283289
  C        14.0450374883       17.8293689763        2.2923910591
  C        15.3496898443       17.8883561278        3.0165110156
  C        15.6074294963       18.8977807449        3.9568053599
  C        16.8166067368       18.9214942532        4.6486916863
  C        17.8007190774       17.9385797512        4.4212559184
  C        17.5477639390       16.9527585841        3.4490939958
  C        16.3379257102       16.9247179769        2.7587790092
  C        19.0692889631       17.9266093141        5.1895812188
  C        19.0670850810       17.9340303907        6.6117304003
  C        17.8600014083       17.8340304250        7.3730034550
  C        46.8030433577       17.2163307676        2.1619062969
  C        45.5101976488       17.1474752756        2.9021771118
  C        45.3048802538       16.1654194838        3.8837253820
  C        44.1210444658       16.1400375635        4.6161829177
  C        43.1121421402       17.0964482229        4.3893496886
  C        43.3139607029       18.0569869436        3.3797455439
  C        44.4986968032       18.0864209811        2.6481910278
  C        41.8591316838       17.1037824873        5.1789813831
  C        41.8675967183       17.1118251914        6.6010761344
  C        43.0777286698       17.2098934890        7.3575751070
  C        20.3132096319       17.9567365831        7.3201653944
  C        20.2933422370       17.9019692464        4.5073324750
  C        46.7843445593       17.2328746525       13.8809381905
  C        45.4827378147       17.1307750949       13.1608913710
  C        45.2633862917       16.1332860281       12.1984962548
  C        44.0761040451       16.1084300563       11.4705171043
  C        43.0776329417       17.0782968975       11.6866431279
  C        43.2880334970       18.0465492232       12.6864089138
  C        44.4761705189       18.0775177525       13.4099097119
  C        41.8303008745       17.1008435520       10.8902147044
  C        41.8529801224       17.1095999788        9.4687650680
  C        43.0708906585       17.2056799220        8.7244564405
  C        46.1534563411       26.6372124556        8.7210985720
  C        46.1621040480       26.6559707980       11.5307457004
  C        14.0445556377       17.8330526435       13.7037380389
  C        15.3650447327       17.9130678300       13.0115190593
  C        15.6322742710       18.9337952592       12.0869228309
  C        16.8594770856       18.9793360087       11.4292378402
  C        17.8471771597       18.0036438905       11.6712238808
  C        17.5866555405       17.0110641459       12.6334562372
  C        16.3610735619       16.9649265202       13.2943738178
  C        19.1141653955       17.9893863543       10.9011521239
  C        19.0905394691       17.9654549132        9.4796533279
  C        17.8714184389       17.8479596147        8.7389974603
  C        28.8087833479       14.0922945281        2.3937714784
  C        28.1922165654       12.9201391881        3.0819337255
  C        28.9097031760       12.1827469274        4.0355307582
  C        28.3063517937       11.1116307925        4.6900716317
  C        26.9712304624       10.7525820187        4.4143305365
  C        26.2763275942       11.4690563762        3.4234033012
  C        26.8772315828       12.5409622061        2.7680664279
  C        26.2986010859        9.6755161159        5.1768094876
  C        26.2814771524        9.7065389295        6.5979418509
  C        26.7801787605       10.8226877350        7.3420430139
  C        32.1771882957       21.2327849482        2.1618702475
  C        32.7656193013       22.3963427451        2.8828914114
  C        32.0463312464       23.0189484240        3.9146588452
  C        32.6184909455       24.0642044029        4.6331433397
  C        33.9246348091       24.5077299658        4.3496164037
  C        34.6251452800       23.8980473826        3.2905002148
  C        34.0558029357       22.8519439886        2.5687607605
  C        34.5599658186       25.5800949034        5.1472406167
  C        34.5708342981       25.5440079780        6.5694288282
  C        34.0825212445       24.4210874702        7.3098767471
  C        25.6724112353        8.6294047231        7.3183555922
  C        25.6647641866        8.6220141136        4.5047691758
  C        32.1049048478       21.2267570221       13.8755416169
  C        32.6972056799       22.3755050966       13.1304125110
  C        31.9697170208       23.0294295319       12.1240666304
  C        32.5547398251       24.0567889852       11.3874555518
  C        33.8801732958       24.4617917843       11.6407567186
  C        34.5896036412       23.8219845104       12.6752075933
  C        34.0102910620       22.7879684176       13.4055910438
  C        34.5245214225       25.5411086401       10.8574636838
  C        34.5491150615       25.5262690942        9.4358706395
  C        34.0687005837       24.4139114998        8.6762780043
  C        40.6144854023       17.1093475280        8.7467977355
  C        40.6000808604       17.1304181286       11.5569549536
  C        28.7245318761       14.0987985712       13.8128007229
  C        28.1033328487       12.9551676401       13.0785740616
  C        28.8345512372       12.2629374723       12.1005943411
  C        28.2534117412       11.2060584530       11.4043834992
  C        26.9239040174       10.8130967229       11.6591808947
  C        26.2092965546       11.4935144454       12.6633082838
  C        26.7890365159       12.5518131833       13.3618444866
  C        26.2845272861        9.7191554303       10.8877011913
  C        26.2753631627        9.7290828024        9.4652593087
  C        26.7744223824       10.8352732158        8.7079804585
  C        18.1355371871        3.1808030043        2.3222663083
  C        17.4062145942        4.2781825916        3.0210313420
  C        16.3900395561        3.9998266456        3.9479945874
  C        15.7422613776        5.0398080083        4.6115005324
  C        16.0946334319        6.3834446042        4.3722435355
  C        17.0845807590        6.6529904292        3.4091011756
  C        17.7337245686        5.6156369964        2.7440866190
  C        15.4702156266        7.4911767147        5.1352345938
  C        15.4856428343        7.4907152081        6.5569469538
  C        16.1873065480        6.4971511215        7.3100801761
  C        42.9458605440       31.8595637181        2.0780141803
  C        43.6462199220       30.7718276421        2.8220245194
  C        44.5923658308       31.0930899153        3.8075062218
  C        45.1980107800       30.0875090940        4.5551914558
  C        44.8709425008       28.7345420092        4.3407878642
  C        43.9443854849       28.4202369581        3.3282628966
  C        43.3356269726       29.4254262258        2.5802215424
  C        45.4885890420       27.6552388455        5.1439567394
  C        45.4929327138       27.6808849742        6.5656502129
  C        44.8059415672       28.6890184703        7.3122400409
  C        14.8565927811        8.5631992419        7.2692613374
  C        14.8746358724        8.5627115262        4.4565948411
  C        42.9463324671       31.9615753727       13.8038858459
  C        43.6914442297       30.8853651698       13.0901997726
  C        44.6566619081       31.1912365311       12.1185309097
  C        45.2781822817       30.1716325739       11.4007964376
  C        44.9537324089       28.8213933759       11.6378526801
  C        44.0194397475       28.5237243348       12.6478511610
  C        43.3911956245       29.5405227335       13.3600237657
  C        45.5629269922       27.7239976476       10.8526654253
  C        45.5334064305       27.7173344676        9.4313669239
  C        44.8272023805       28.7076511033        8.6784221408
  C        35.1505089843       26.6203372218        8.7301540778
  C        35.1284351659       26.6036578100       11.5402116604
  C        18.1487136513        3.2468676210       13.7015609707
  C        17.4301713638        4.3438686078       12.9920818287
  C        16.4145947865        4.0526351114       12.0689541480
  C        15.7662768735        5.0832787941       11.3935318817
  C        16.1213726485        6.4284286548       11.6158800678
  C        17.1132023735        6.7118049400       12.5726432196
  C        17.7608834254        5.6828644642       13.2523945910
  C        15.4907674960        7.5241547096       10.8434981937
  C        15.4967758354        7.5077107546        9.4223585543
  C        16.1935561195        6.5060035725        8.6756843796
  H        10.6727070047       12.4668133430       11.8982113731
  H        11.6948734958       10.5520823354       10.6563414559
  H        15.3904482732       11.1664711222       12.7692648066
  H        14.3500258239       13.0692455134       14.0146032178
  H        13.3759626808       11.6311552031        9.1960820084
  H        50.3225545102       22.7483221094       11.9815458666
  H        49.3192926429       24.6226880871       10.6755283625
  H        45.6420871905       24.1613053941       12.8588748875
  H        46.6629297950       22.2905098178       14.1671243025
  H        47.6296573152       23.5757315049        9.2409974069
  H        14.8718618165        8.5879145992       12.6034043580
  H        50.2869340268       22.7027063019        4.0654109559
  H        49.2688463155       24.5754988556        5.3654381758
  H        45.6102914903       24.1090905508        3.1510597960
  H        46.6523284949       22.2539063205        1.8368114296
  H        47.6076421191       23.5517000442        6.8019537790
  H        40.6381421581       17.0699563994        3.4147732630
  H        48.6868701318       14.0948860801       15.7949257028
  H        10.6816510502       12.4678540055        4.0998312424
  H        11.6897370324       10.5259680697        5.3035576952
  H        15.3919105171       11.1561099747        3.2078793696
  H        14.3635181601       13.0845368838        1.9924458522
  H        13.3755492969       11.6220700042        6.7581940568
  H        47.9302077065       14.2175629039        1.7160226869
  H        47.7796902790       14.3723413235       14.4898420381
  H        49.0824394349       18.5521092898        2.8720457803
  H        10.4156881334       14.1343475747        0.0037583155
  H        24.4894380006        3.0431657733       11.9124174974
  H        25.6213339308        4.9110462622       10.6920280259
  H        23.2310852564        7.7606606784       12.8516804688
  H        22.1175457074        5.8833785418       14.0736394723
  H        23.7987795610        5.8067672785        9.2712963515
  H        36.3837220604       32.1853385935       11.9539384302
  H        35.2638355997       30.3583729661       10.6732320263
  H        37.5167429997       27.4385963372       12.8868984256
  H        38.6171901458       29.2781241194       14.1759296710
  H        37.0341025913       29.4454873538        9.2627831862
  H        25.7143732539        8.6365749421       12.6534898260
  H        36.4587899841       32.2406935233        4.1208054663
  H        35.3447243200       30.4232134258        5.4141486597
  H        37.5100746933       27.4859570322        3.1359153785
  H        38.5997635360       29.3151559028        1.8304179926
  H        37.0468402126       29.4650517255        6.8248591261
  H        46.1087308183       26.5873778275        3.3906200046
  H        44.6681940707       35.1161988065       15.8088167660
  H        24.4261807314        3.0450585086        4.1064516301
  H        25.5504171652        4.8862598333        5.3598528887
  H        23.1616782749        7.7711304539        3.2461279093
  H        22.0484953177        5.9177969967        1.9933010892
  H        23.7778470197        5.8032914395        6.8330950597
  H        44.9537679325       34.3904725827        1.7003950894
  H        44.9013049265       34.2066879595       14.4855401463
  H        40.6651151320       33.2084726542        2.8579680219
  H        23.1503201370        1.9581630219        0.0107550494
  H        25.7872736232       19.7365941376       11.9499647311
  H        23.6197605916       19.7819684742       10.7074486950
  H        22.3602803690       16.2370933653       12.7904995926
  H        24.5343691992       16.2005042430       14.0236131640
  H        23.7197129961       17.7443782742        9.2358026105
  H        35.1297444489       15.4843709646       11.9437302847
  H        37.2596619410       15.4308979784       10.6467429075
  H        38.6957588724       18.8107445010       12.8876307875
  H        36.5631780394       18.8395546155       14.1941727141
  H        37.2242649970       17.4019994422        9.2316112421
  H        20.3539691362       18.0171266094       12.6555459351
  H        35.1567096544       15.4449139239        4.1041411945
  H        37.2947586822       15.3776442345        5.3887198205
  H        38.7320260336       18.7636135367        3.1580233419
  H        36.5904932859       18.8105845212        1.8688172363
  H        37.2354167179       17.3801602322        6.7911229397
  H        35.1224330270       26.6890505167        3.3997403186
  H        28.5130017173       21.0880891189       15.9747018962
  H        25.7092083120       19.6984771557        4.0769729973
  H        23.5217011592       19.7589639074        5.2896025290
  H        22.3388171740       16.1235902424        3.3216207487
  H        24.5263784183       16.0820996739        2.1055383274
  H        23.6995485222       17.7186492734        6.7908794464
  H        28.9942890792       21.7204817804        1.7788679628
  H        29.1398488252       21.7585680514       14.6094638035
  H        32.1059334152       18.5254066718        2.9967622070
  H        27.4132688745       19.0911449866        0.1031417777
  H        14.8496589075       19.6586503401        4.1298821868
  H        17.0140909448       19.7101032988        5.3716108354
  H        18.2977672918       16.1860186902        3.2659287706
  H        16.1294255648       16.1510787087        2.0236145025
  H        16.9183296805       17.7123451929        6.8455895767
  H        46.0903943114       15.4359547834        4.0664832603
  H        43.9633533249       15.3714763455        5.3696923213
  H        42.5429270104       18.8032552702        3.1996478393
  H        44.6704710138       18.8429142594        1.8860244692
  H        44.0188047711       17.3196264091        6.8262825740
  H        20.2875919345       17.9181717581        3.4189382129
  H        46.0386668592       15.3909411389       12.0228811042
  H        43.9093858125       15.3332495335       10.7257274424
  H        42.5230783149       18.8004559471       12.8603700373
  H        44.6583467971       18.8439487794       14.1592333377
  H        44.0068560195       17.3109293082        9.2654573566
  H        46.1986514669       26.6824767317       12.6182014621
  H        52.7408346028       21.0626099987        0.1997238948
  H        14.8680487590       19.6850739439       11.9004178775
  H        17.0655467683       19.7739000542       10.7152677724
  H        18.3406539496       16.2509290893       12.8273786435
  H        16.1444880329       16.1859819776       14.0214704129
  H        16.9384301420       17.7368213968        9.2833430988
  H        52.3217628619       21.6731669880       14.2896149145
  H        52.0130218523       21.7019476420        1.5008671216
  H        49.0666880920       18.6079121936       13.1990821080
  H        13.2466671457       19.0172410870       15.9719341670
  H        29.9392207828       12.4626682774        4.2479750804
  H        28.8647530772       10.5394505026        5.4278575700
  H        25.2452769927       11.2011458641        3.2017624470
  H        26.3379951032       13.1149266485        2.0184902500
  H        27.1425199839       11.6908049392        6.7998154282
  H        31.0562986132       22.6498440023        4.1704047278
  H        32.0534681273       24.5452178970        5.4282676475
  H        35.6374253473       24.2279849214        3.0663455379
  H        34.6032514878       22.3570536443        1.7699640243
  H        33.7379481092       23.5461473674        6.7664799856
  H        25.6980281497        8.5994985547        3.4169024583
  H        30.9482205077       22.7126433322       11.9262309022
  H        31.9849220217       24.5629755300       10.6112586318
  H        35.6154535660       24.1236115606       12.8764538006
  H        34.5640375114       22.2713216871       14.1859992362
  H        33.7133480610       23.5339357308        9.2049775019
  H        40.5944915502       17.0955570883       12.6447427527
  H        32.5111495120       14.1503579000        0.2528433343
  H        29.8594973104       12.5683312904       11.9030205650
  H        28.8301300375       10.6667788038       10.6560467894
  H        25.1807876778       11.2035121330       12.8684289816
  H        26.2328363910       13.0905159652       14.1254581578
  H        27.1315035683       11.7131989024        9.2384452240
  H        33.3016377441       14.2103879209       14.4419287746
  H        33.4072030227       14.4029884783        1.6046254834
  H        32.1024865032       18.5279915297       13.1645833282
  H        30.2225273559       14.1912581113        0.0765250951
  H        16.1176728215        2.9633196312        4.1339707838
  H        14.9524386239        4.8204126110        5.3267502116
  H        17.3674059735        7.6858381185        3.2164385698
  H        18.5162119471        5.8181519333        2.0166820816
  H        16.7537209604        5.7397419437        6.7765158507
  H        44.8290750690       32.1401420800        3.9812989669
  H        45.9383101508       30.3411821620        5.3107404306
  H        43.6809666886       27.3782555713        3.1587243940
  H        42.5983348245       29.1901919827        1.8161741143
  H        44.2306181572       29.4367793692        6.7738840140
  H        14.8506492807        8.5456471827        3.3683835401
  H        44.9006960638       32.2338941198       11.9275726110
  H        46.0255588388       30.4128209767       10.6480127231
  H        43.7617529911       27.4840567458       12.8387839418
  H        42.6440485839       29.3177851644       14.1178539569
  H        44.2687052290       29.4705275427        9.2130375285
  H        35.0809386698       26.6203048828       12.6274191065
  H        36.6050813109       35.1338368838        0.1858537269
  H        16.1432394562        3.0130646128       11.8995913119
  H        14.9736639009        4.8564291627       10.6837660995
  H        17.3970915784        7.7472324356       12.7491360604
  H        18.5441296614        5.8931730218       13.9768039684
  H        16.7649080200        5.7557420196        9.2141902469
  H        36.2787474384       34.4822547754       14.2682134948
  H        36.3807644023       34.2092352768        1.5051940806
  H        40.5801880950       33.2026584124       13.1487733611
  H        17.4707278380        1.9468096451       15.9691092375
  H        28.7548444180       18.8306674302        4.3290604767
  H        28.8587125450       18.4597755378       11.9030360069
  H        31.6580466590       15.7695968870       11.5735911150
  H        31.5692854086       15.6493200847        4.5976113064
  H        28.5878963077       17.3030009689        6.9187423723
  H        29.8519502233       15.1649407923        6.5186322299
  H        30.3961120886       19.9218255982       10.1099325775
  H        32.8026074352       17.3300875279        9.6201868257
  H        18.8533355506        0.8687466887        4.3405575891
  H        40.5278874201       35.2288798884       11.9469517021
  H        42.3241506180       34.4188287139       11.5854101473
  H        22.0877250644        0.6924892083        4.3563310523
  H        11.5968289005       18.7132522532        4.3875319804
  H        52.2643794553       18.4306645388       11.6721305175
  H        49.2550792262       16.4766081313       11.5792254282
  H        10.1507526812       15.7980557767        4.2975428282
  H        50.8493653428       17.6923633107       11.9492114664
  H        10.0462581614       17.3944815694        4.0571154207
  H        20.2145560594        0.0020964889        4.0471132975
  H        39.1837185821       36.1243831681       11.6812602836
 Ni        30.9406638746       17.8217554991       10.9880904931
 Ni        31.2011632978       16.3470206943        8.1612982542
 Ni        29.9709271689       18.7726288193        8.0019067774
 Ni        30.1332469383       17.2661959476        5.2459704256
  O        10.6498682079       14.3652136396       13.4807457714
  O        12.6131366047       14.6576073404       14.5787628062
  O        49.1478814972       16.8460555947       15.9846643095
  O        50.3502002256       20.9358677559       13.6430961802
  O        48.3485536857       20.5932568219       14.6608687987
  O        11.0510693664       17.0540545982       14.4954857896
  O        50.3209123924       20.8816097608        2.4118523107
  O        48.3467376263       20.5866626531        1.3321563860
  O        49.5434990165       18.2484466720        2.0733939375
  O        12.3587076198       18.6244549978        0.0047163439
  O        48.6931868178       14.1486730537       14.7461812866
  O         8.2098834290       14.2103800174        1.3275771909
  O        10.7353574578       14.5067584631        2.6694106669
  O        12.5717571146       14.5828996565        1.3335268273
  O        22.8448637004        2.0445779387       13.4818241285
  O        21.6051126919        3.5922612761       14.5853149100
  O        42.0581493273       34.1374016742       15.9739385292
  O        37.9819786204       33.1381964536       13.5675217293
  O        39.2183798517       31.5764840038       14.6618637126
  O        20.3084446782        1.0397272813       14.4969805883
  O        38.0244535494       33.1854178680        2.4203408744
  O        39.2188424872       31.5835410838        1.3317993156
  O        40.6522816086       33.7692757472        2.0654131999
  O        18.2556292365        1.3759582609        0.0019469394
  O        44.6221898373       35.1005830067       14.7536162852
  O        24.2053776961        0.0000612939        1.3259061627
  O        22.7531407131        2.0585664943        2.5894773761
  O        21.6246376438        3.5964279617        1.3483240142
  O        27.5034028853       18.7607043456       13.4758769898
  O        26.7277255377       16.9910747446       14.6635232019
  O        30.6669954572       19.4065605633        0.0798526300
  O        33.5462089810       16.3380964232       13.5917156886
  O        34.2728813129       18.1709619753       14.7306022966
  O        29.5692287953       17.0714739819       14.5784103091
  O        33.5562357475       16.3386805582        2.4213613340
  O        34.3009298803       18.2397190423        1.4135995270
  O        31.6507290058       18.3150380321        2.1641692898
  O        30.3191952742       15.1575683565        0.0923290304
  O        28.5534373377       21.0368775092       14.9004966324
  O        28.5146545684       20.9548246625        1.4185788766
  O        27.4572823311       18.6801101495        2.6653262741
  O        26.6926736018       16.9313378433        1.4203318164
  O        13.1479374349       18.6933033359        2.5921096708
  O        13.9189878499       16.9160420363        1.4096977407
  O        50.5956010239       19.3502079616        0.0254557478
  O        47.6832819909       16.3269142127        2.4222508670
  O        46.9509870286       18.1755920397        1.3302207849
  O        11.0694166775       17.0156938444        1.4947125845
  O        47.6747398990       16.3360242555       13.6474778157
  O        46.9260498222       18.2359244578       14.6587360571
  O        49.5681774740       18.3177178934       13.9770474383
  O        10.3184881372       15.1002324718        0.0021595572
  O        52.6707277614       21.0279117457        1.2469375917
  O        12.1467917480       20.8911746265       14.6680930958
  O        13.1070376239       18.6141432329       13.3205172033
  O        13.9575151945       16.9874625261       14.6593272015
  O        29.9925834816       14.4409070118        2.7325281305
  O        28.0881878514       14.6560614575        1.4977028694
  O        32.1345328294       16.8613038347        0.0846694119
  O        30.9602901460       20.9357267402        2.4232516255
  O        32.9421881175       20.6039243083        1.3461906181
  O        29.5677383550       17.0752174391        1.5798264424
  O        30.8727265484       20.9442599680       13.6552281249
  O        32.8778405019       20.5896449076       14.6639935611
  O        31.6550032539       18.3082122365       14.0012171938
  O        28.2934616116       18.6812271478        0.0841749980
  O        32.4906309510       14.2136203232        1.3323355186
  O        32.4051926821       14.2208272790       14.8169317184
  O        29.9088154647       14.4378242819       13.4959496626
  O        28.0081910879       14.6492359933       14.7329036380
  O        17.8891603895        1.9666565120        2.6679869912
  O        18.9562108926        3.5271972681        1.4131104669
  O        39.1686260662       34.1387705748        0.0023901421
  O        43.2802553390       33.0589648924        2.3368213381
  O        42.0346201088       31.5064078034        1.2467514475
  O        20.3176486159        1.0366817472        1.4854814176
  O        43.2760840325       33.1825039785       13.5697773100
  O        42.0052908273       31.5840636655       14.5779117984
  O        40.5792396904       33.7751872045       13.9310043883
  O        22.3673866050        1.3846887627        0.0031101066
  O        36.6727671951       35.0997536305        1.2384708827
  O        16.4455428562        0.0642879116       14.6631760100
  O        17.9364539717        2.0434348316       13.3212436541
  O        18.9190001177        3.5931837263       14.6608529366
  O        29.7426278572       18.8305555128       12.0869456711
  O        29.6985290507       18.7585895637        4.0785748836
  O        31.2092807588       16.4036006412       12.1661349348
  O        31.3107990933       16.4198362319        4.0562556219
  O        32.0258226334       16.7760777067        9.8197613087
  O        30.5482370336       15.8408355751        6.4732652606
  O        31.6349812216       18.1713921353        7.3384426549
  O        30.8772687771       19.2007344594        9.6588278229
  O        28.9823255037       18.0927441096        6.4979085551
  O        39.4567351898       35.2437622487       11.9968689763
  O        19.1412694232        0.0043613579        3.9956940051
  O        41.9694614932       35.1724976930       12.0821204198
  O        21.6913793059       -0.0691520214        3.9009862108
  O        51.3647247335       18.6142177453       12.0002801585
  O        10.7510704887       18.7472503765        3.9099786562
  O        50.0794429559       16.4128588235       12.0867034892
  O         9.5248501299       16.4829900377        3.9963055263
 Zr         9.2956969985       16.0527414330       14.1771960962
 Zr        49.8357377692       16.0066758671        1.7517707316
 Zr        22.0731217063        0.0300219318       14.1840352658
 Zr        42.4608843760       35.1534930428        1.8060510898
 Zr        29.6109368611       19.1197642440       14.2924068899
 Zr        29.5933691368       19.1702952164        1.8723812374
 Zr        11.0366168771       19.0523554414        1.8325665392
 Zr        11.0426058678       19.1551294188       14.2461188679
 Zr        31.3401240610       16.0997918114        1.8825943646
 Zr        31.3809176277       16.0314720702       14.2884700259
 Zr        18.6009983736       -0.0020588062        1.7685188302
 Zr        18.5064196939       -0.0080449476       14.2087183406
 Zr        12.3004950930       16.3232107301       15.9848722499
 Zr        48.6150176926       18.8330836717        0.0153354649
 Zr        20.3154843900        2.4731360542       15.9857166816
 Zr        40.6430504312       32.6867623066       15.9733854895
 Zr        28.3420951875       16.3473966708        0.0832073485
 Zr        32.6373438149       18.8451202844        0.0580415119
  H        32.2606952879       18.6337588018        7.9288015478
  O        28.2274648189       19.5599066755        8.7306842949
  H        27.6919058217       19.6614211888        7.9195791907
  H        27.7650225015       18.9019477205        9.2812260717
  O        30.4578967818       20.8117441554        6.0680696910
  H        30.2302790393       20.2033464005        5.3265945383
  H        31.2538092937       20.3881494596        6.4328773076
  H        30.8068566348       15.0678334007        8.7257045894
