     577
 i =      239, E =     -4796.1481714398
  C        11.8585855154       14.0534609020       13.7364453392
  C        12.4560290973       12.8904369613       13.0182691676
  C        11.7044668918       12.1717927275       12.0762854137
  C        12.2808459109       11.1095942024       11.3839303078
  C        13.6213098311       10.7395189189       11.6119212519
  C        14.3542849621       11.4427431962       12.5858020411
  C        13.7813954946       12.5076942762       13.2773390556
  C        14.2609283582        9.6489399081       10.8384922981
  C        14.2562186804        9.6568782764        9.4167885132
  C        13.7429007660       10.7589200028        8.6628612159
  C        49.1266034291       21.2333264859       13.8746185713
  C        48.5498244219       22.4011609026       13.1475219142
  C        49.2998851776       23.0685439196       12.1665780183
  C        48.7329130328       24.1076272586       11.4333527024
  C        47.4023366394       24.5092013584       11.6619246420
  C        46.6713459044       23.8602237213       12.6753440953
  C        47.2338170030       22.8153591343       13.4047284898
  C        46.7721588961       25.5869153419       10.8646395685
  C        46.7612462421       25.5573213153        9.4428804452
  C        47.2611317183       24.4422026661        8.6993880931
  C        14.8603034823        8.5706210552        8.7035204031
  C        14.8918465840        8.5970523802       11.5151314063
  C        49.1130202312       21.2034908969        2.1504295010
  C        48.5276886429       22.3648197545        2.8775504655
  C        49.2669556964       23.0255760703        3.8704246357
  C        48.6906175384       24.0600969873        4.6019084201
  C        47.3601812796       24.4568473737        4.3637192578
  C        46.6397242633       23.8118578839        3.3402788546
  C        47.2132627646       22.7759659268        2.6084699591
  C        46.7217602864       25.5318143557        5.1547608530
  C        46.7335605193       25.5281865692        6.5764614741
  C        47.2488930655       24.4289160689        7.3328332660
  C        40.6224389342       17.1230540834        7.3130725720
  C        40.6337300236       17.1189858372        4.5035158069
  C        11.8828376257       14.0864158098        2.2905458399
  C        12.4720502436       12.9104973411        2.9946398380
  C        11.7146481240       12.1776623980        3.9211347161
  C        12.2811736035       11.0951825625        4.5895600158
  C        13.6198388929       10.7210577104        4.3574096324
  C        14.3576310071       11.4361890329        3.3961206039
  C        13.7922585853       12.5173652491        2.7234049132
  C        14.2535232626        9.6244115788        5.1278854846
  C        14.2522936713        9.6444470231        6.5497313142
  C        13.7423291101       10.7533530684        7.2968141399
  C        22.5124837874        3.2462285658       13.7474757049
  C        23.2257766711        4.3539909667       13.0487547303
  C        24.2254693598        4.0787835398       12.1038076245
  C        24.8503829347        5.1212132793       11.4235653171
  C        24.4917637717        6.4623371487       11.6667380847
  C        23.5204254882        6.7290234024       12.6490605169
  C        22.8912042792        5.6885044150       13.3280081800
  C        25.0947807339        7.5714270462       10.8910561194
  C        25.0731979469        7.5606598831        9.4691370376
  C        24.3763602912        6.5575745661        8.7230740859
  C        38.3028521253       31.9299316904       13.8439848003
  C        37.5735480667       30.8403411924       13.1343436719
  C        36.6153876981       31.1438620842       12.1551510681
  C        35.9988908151       30.1232249502       11.4367473726
  C        36.3256433013       28.7741610045       11.6764206472
  C        37.2540219319       28.4781297676       12.6921695495
  C        37.8748340933       29.4974724184       13.4091594845
  C        35.7240750396       27.6820371812       10.8793033002
  C        35.7567519026       27.6960251110        9.4580558382
  C        36.4636789404       28.6977225610        8.7209177390
  C        25.6966868886        8.6299801716        8.7482126080
  C        25.6842792956        8.6516926526       11.5607475210
  C        38.3289636552       31.9621949946        2.1612152755
  C        37.6078314987       30.8885773433        2.9029594321
  C        36.6801577299       31.1965017025        3.9097726504
  C        36.0710824660       30.1773614500        4.6392731451
  C        36.3754357147       28.8249849406        4.3853463536
  C        37.2805989264       28.5270697955        3.3483579754
  C        37.8918199249       29.5426820290        2.6201776888
  C        35.7687013814       27.7252621459        5.1695076387
  C        35.7797495039       27.7179339272        6.5914702817
  C        36.4742282594       28.7085308893        7.3544053000
  C        46.1356083222       26.6208565696        7.2865907033
  C        46.0878399735       26.5801873582        4.4787022538
  C        22.4626735706        3.2568208852        2.2638626879
  C        23.1594408961        4.3648649885        2.9866549515
  C        24.1610750955        4.0775894866        3.9279210266
  C        24.7915469797        5.1065404935        4.6239860872
  C        24.4414216486        6.4536394240        4.4019416014
  C        23.4630148250        6.7340167019        3.4290117985
  C        22.8278179585        5.7053818769        2.7335392390
  C        25.0736343369        7.5520392247        5.1761322363
  C        25.0637217015        7.5493827912        6.5992292320
  C        24.3695833479        6.5534686937        7.3563896975
  C        26.6102075031       17.8893191914       13.7474651993
  C        25.3028520133       17.9372950253       13.0256828193
  C        25.0338130172       18.9430541563       12.0839210227
  C        23.8179762419       18.9621651406       11.4033107218
  C        22.8373356540       17.9784312849       11.6437289739
  C        23.1024187794       16.9958393645       12.6156165102
  C        24.3191225084       16.9721910006       13.2945538649
  C        21.5643707244       17.9595951695       10.8817245644
  C        21.5673333970       17.9367892579        9.4600009406
  C        22.7749857152       17.8161837309        8.7023172127
  C        34.4204196210       17.2240113458       13.8773282495
  C        35.7167318231       17.1696817385       13.1419179046
  C        35.9133191570       16.2196777880       12.1278277185
  C        37.1005076772       16.2021304158       11.4017906280
  C        38.1212991588       17.1363727409       11.6656516086
  C        37.9268053177       18.0659359459       12.7051903010
  C        36.7385290709       18.0865731959       13.4316270909
  C        39.3761898010       17.1462043296       10.8805356038
  C        39.3699811132       17.1628383821        9.4584576340
  C        38.1630987595       17.2958266585        8.7019272990
  C        20.3218703097       17.9488251273        8.7508424641
  C        20.3403390551       17.9556297656       11.5643036891
  C        34.4447180407       17.2362955991        2.1871934816
  C        35.7468727304       17.1399636435        2.9088072471
  C        35.9446498262       16.1782555365        3.9107983594
  C        37.1338087613       16.1554101786        4.6357737971
  C        38.1540640689       17.0922597688        4.3779571224
  C        37.9621801072       18.0253538098        3.3416294965
  C        36.7721819084       18.0543076941        2.6207594887
  C        39.4033063147       17.1148587402        5.1708033709
  C        39.3837958095       17.1453959196        6.5919434773
  C        38.1695673572       17.2844399301        7.3354735579
  C        35.1493343907       26.6387024049        7.2955372241
  C        35.1781948198       26.6548609234        4.4866048827
  C        26.5693615465       17.8255126158        2.3309954683
  C        25.2550439853       17.8751493781        3.0348719630
  C        24.9849871390       18.8901160784        3.9649988888
  C        23.7662171032       18.9180801023        4.6364668071
  C        22.7888228432       17.9309600133        4.4005858183
  C        23.0525749985       16.9408016444        3.4370289516
  C        24.2721394169       16.9107652713        2.7639012781
  C        21.5246652669       17.9152398150        5.1721216389
  C        21.5470321080       17.9122830838        6.5933088080
  C        22.7653600512       17.8034159184        7.3363129694
  C        14.0452828898       17.8298386469        2.2915411124
  C        15.3503161207       17.8893912946        3.0135417842
  C        15.6075423032       18.8963283571        3.9566313428
  C        16.8172143327       18.9190951341        4.6474669015
  C        17.8019409868       17.9377223615        4.4161630430
  C        17.5498544283       16.9553516430        3.4403149660
  C        16.3395842637       16.9280639392        2.7511202654
  C        19.0697112598       17.9217866227        5.1850491504
  C        19.0658239760       17.9215331832        6.6070966735
  C        17.8576549343       17.8219577429        7.3666427907
  C        46.8031505542       17.2166138996        2.1620676937
  C        45.5102351984       17.1490750233        2.9025356869
  C        45.3051955853       16.1705588079        3.8876528208
  C        44.1213289834       16.1475142134        4.6202543452
  C        43.1120421570       17.1027104508        4.3898793428
  C        43.3135089603       18.0593283382        3.3764700334
  C        44.4982702724       18.0865462150        2.6449595508
  C        41.8592110685       17.1137404070        5.1797684659
  C        41.8678432511       17.1261112704        6.6018470468
  C        43.0781294349       17.2239372422        7.3581086151
  C        20.3113148713       17.9365593658        7.3165551707
  C        20.2940441616       17.9004182411        4.5038887397
  C        46.7846845065       17.2330464525       13.8810283657
  C        45.4831349485       17.1319755204       13.1609298281
  C        45.2642562505       16.1373730530       12.1955184231
  C        44.0770147807       16.1145070820       11.4674150321
  C        43.0783279700       17.0833549241       11.6867852564
  C        43.2881561117       18.0483466962       12.6897755387
  C        44.4762965704       18.0775330080       13.4131433376
  C        41.8310564139       17.1089345777       10.8906175451
  C        41.8535584888       17.1229111372        9.4692985493
  C        43.0714046085       17.2193638830        8.7249914345
  C        46.1533414117       26.6372616661        8.7211365608
  C        46.1622079996       26.6560298196       11.5307760121
  C        14.0434076154       17.8312744836       13.7027828740
  C        15.3620374610       17.9063160733       13.0083681858
  C        15.6308542370       18.9243738033       12.0814143763
  C        16.8573658777       18.9646901189       11.4224635551
  C        17.8420174015       17.9862520643       11.6655133090
  C        17.5797112172       16.9961130353       12.6296784650
  C        16.3550135161       16.9551904487       13.2919646586
  C        19.1087481584       17.9676148485       10.8961963049
  C        19.0861368018       17.9445223876        9.4747866297
  C        17.8674765171       17.8321063031        8.7327594702
  C        28.8078978136       14.0842238817        2.3618899436
  C        28.2012974132       12.9118670523        3.0583701425
  C        28.9281425486       12.1744923334        4.0049095874
  C        28.3303721345       11.1048567297        4.6678523767
  C        26.9925377059       10.7456139374        4.4058595498
  C        26.2877969754       11.4627583830        3.4221809264
  C        26.8821157100       12.5342559467        2.7602129906
  C        26.3252245557        9.6664336458        5.1714064790
  C        26.3097406744        9.6958591799        6.5926853615
  C        26.8110138661       10.8105726461        7.3371772439
  C        32.1818269601       21.2405981903        2.1491287360
  C        32.7755545394       22.4068854839        2.8665428795
  C        32.0320562783       23.0770093199        3.8500740971
  C        32.6034753163       24.1151205531        4.5787945020
  C        33.9346579780       24.5107617234        4.3454386432
  C        34.6606741613       23.8591087735        3.3305656554
  C        34.0915237464       22.8156501059        2.6033160033
  C        34.5644681776       25.5845459760        5.1463904956
  C        34.5573255897       25.5546769424        6.5680869690
  C        34.0492402784       24.4392302032        7.3065229671
  C        25.6978696491        8.6197338848        7.3129918824
  C        25.6900712793        8.6135255928        4.4993606168
  C        32.1048437728       21.2274662191       13.8756368002
  C        32.6948443873       22.3779416641       13.1310100479
  C        31.9590429943       23.0393808190       12.1358831238
  C        32.5396029001       24.0689672707       11.3990392742
  C        33.8691089905       24.4671169192       11.6402548716
  C        34.5875340457       23.8191980814       12.6632047281
  C        34.0120400671       22.7837327657       13.3946786596
  C        34.5100035951       25.5479065161       10.8561489904
  C        34.5283716672       25.5369366086        9.4343873463
  C        34.0340159780       24.4312552451        8.6731924375
  C        40.6149048678       17.1269203547        8.7477376563
  C        40.6011494763       17.1358349435       11.5578117740
  C        28.7242081588       14.1006689929       13.8113452180
  C        28.1063349287       12.9548309154       13.0772851749
  C        28.8430629853       12.2563774547       12.1078445708
  C        28.2644387279       11.1986563280       11.4107054339
  C        26.9317052127       10.8105900775       11.6560517993
  C        26.2113392695       11.4970153455       12.6520129508
  C        26.7886421653       12.5562336315       13.3513664887
  C        26.2954042452        9.7153474436       10.8832406746
  C        26.2942644582        9.7218233083        9.4605922636
  C        26.8000766676       10.8250119339        8.7031645358
  C        18.1355635535        3.1810381772        2.3222665145
  C        17.4062661688        4.2783173726        3.0209000465
  C        16.3903951438        3.9999305188        3.9482311538
  C        15.7426488774        5.0398902172        4.6117425657
  C        16.0947108610        6.3835878587        4.3722232858
  C        17.0843049353        6.6531486055        3.4087039225
  C        17.7334423127        5.6158222838        2.7436533135
  C        15.4702876211        7.4912570672        5.1352426128
  C        15.4856138236        7.4906357036        6.5569511231
  C        16.1873325312        6.4971339611        7.3101138082
  C        42.9459254229       31.8595997777        2.0780026925
  C        43.6463025397       30.7719232019        2.8219764183
  C        44.5919392683       31.0932484192        3.8079365858
  C        45.1976731239       30.0876938276        4.5555697464
  C        44.8711164235       28.7346512992        4.3408032729
  C        43.9451792071       28.4202995524        3.3277029050
  C        43.3363478469       29.4254527668        2.5796897366
  C        45.4887100514       27.6553498564        5.1439752845
  C        45.4929304656       27.6809926868        6.5656644170
  C        44.8059528090       28.6891113788        7.3122872562
  C        14.8565066077        8.5630568627        7.2692955102
  C        14.8748244008        8.5628926387        4.4566295854
  C        42.9464492986       31.9616557782       13.8038525680
  C        43.6916663581       30.8854969311       13.0903456843
  C        44.6564139949       31.1913981300       12.1182035741
  C        45.2779416657       30.1718026354       11.4004886090
  C        44.9539920126       28.8215041601       11.6379723237
  C        44.0203022340       28.5238329306       12.6485510288
  C        43.3920510232       29.5406118703       13.3607249756
  C        45.5630342134       27.7240959668       10.8527311118
  C        45.5334263498       27.7174447298        9.4314329939
  C        44.8272053370       28.7077349414        8.6784683248
  C        35.1361383721       26.6285756135        8.7301825733
  C        35.1190015799       26.6069637595       11.5398489320
  C        18.1488152695        3.2471019760       13.7015689769
  C        17.4303172211        4.3440084675       12.9921858640
  C        16.4149049343        4.0527370531       12.0688507003
  C        15.7665919016        5.0833592629       11.3934415818
  C        16.1214722328        6.4285622383       11.6159576767
  C        17.1131337178        6.7119583183       12.5729086711
  C        17.7608211894        5.6830445381       13.2526841512
  C        15.4908552959        7.5242310302       10.8435418529
  C        15.4967010379        7.5076219800        9.4224059146
  C        16.1935904953        6.5060008017        8.6757173888
  H        10.6724230469       12.4660945871       11.8990480636
  H        11.6946264677       10.5512987652       10.6571909800
  H        15.3911901745       11.1678584115       12.7678351727
  H        14.3507113798       13.0706083428       14.0131240890
  H        13.3757698987       11.6310058867        9.1961507762
  H        50.3226184239       22.7485586970       11.9818896526
  H        49.3193721636       24.6229437341       10.6757891565
  H        45.6418011307       24.1608781529       12.8584086942
  H        46.6627364403       22.2900401930       14.1667157562
  H        47.6294895147       23.5757419228        9.2410662407
  H        14.8722037688        8.5882647272       12.6034401727
  H        50.2870153516       22.7027538815        4.0652991592
  H        49.2689976683       24.5755950141        5.3653923595
  H        45.6102800918       24.1090110794        3.1512963724
  H        46.6523395263       22.2537203462        1.8370387073
  H        47.6075331146       23.5517350371        6.8019424577
  H        40.6379446671       17.0734245858        3.4161293302
  H        48.6868850141       14.0950049225       15.7949010954
  H        10.6812894370       12.4669690466        4.0987955927
  H        11.6894422114       10.5250106831        5.3024890974
  H        15.3929074749       11.1579399333        3.2098391442
  H        14.3644649722       13.0863699271        1.9944901976
  H        13.3753438872       11.6219094653        6.7581901415
  H        47.9301731795       14.2180024763        1.7160210955
  H        47.7797841629       14.3728627784       14.4898870183
  H        49.0825717021       18.5520139891        2.8721336683
  H        10.4156973009       14.1343181185        0.0037762829
  H        24.4909425301        3.0414290215       11.9122904462
  H        25.6257104529        4.9061701923       10.6913984761
  H        23.2352356352        7.7606799616       12.8444928790
  H        22.1193747545        5.8865085093       14.0677535310
  H        23.8149603865        5.8009802727        9.2634194691
  H        36.3789775773       32.1870478584       11.9591693291
  H        35.2556294595       30.3617544584       10.6791641420
  H        37.5137044537       27.4390796092       12.8839521476
  H        38.6175215639       29.2771471697       14.1722667917
  H        37.0291508745       29.4471586660        9.2670320083
  H        25.7146683141        8.6381998819       12.6487880319
  H        36.4575001864       32.2405686257        4.1180527162
  H        35.3463690340       30.4215550043        5.4128230999
  H        37.5274714455       27.4870135126        3.1456802261
  H        38.6133713860       29.3177537452        1.8385763036
  H        37.0487223168       29.4659072254        6.8288868631
  H        46.1091473023       26.5875384801        3.3906654807
  H        44.6683047061       35.1162400143       15.8087992967
  H        24.4366857658        3.0389064344        4.0958913622
  H        25.5716076250        4.8752804354        5.3462339307
  H        23.1804737882        7.7690306605        3.2475220530
  H        22.0569473188        5.9206656052        1.9971471141
  H        23.8021630479        5.7945457107        6.8255543258
  H        44.9539072096       34.3904709888        1.7003151673
  H        44.9014751734       34.2068014802       14.4854421294
  H        40.6660627290       33.2092499036        2.8582431152
  H        23.1505992432        1.9583143652        0.0103291548
  H        25.7852841625       19.7096553958       11.9069460398
  H        23.6113665832       19.7478026047       10.6795681359
  H        22.3558554384       16.2279538974       12.8079742938
  H        24.5366960357       16.2010867319       14.0299034008
  H        23.7147359076       17.7006308243        9.2343288775
  H        35.1183207515       15.5091827153       11.9148583314
  H        37.2515630947       15.4567476291       10.6241298700
  H        38.7061683374       18.7959854071       12.9137552817
  H        36.5723042086       18.8191212114       14.2180661463
  H        37.2263214389       17.4358547713        9.2335766486
  H        20.3464824571       17.9947523742       12.6521737463
  H        35.1483099897       15.4675785231        4.1203403141
  H        37.2847508852       15.4071566410        5.4108002281
  H        38.7428785014       18.7548319354        3.1362106217
  H        36.6033908590       18.7946338875        1.8425162138
  H        37.2377140513       17.4146109169        6.7928981831
  H        35.1489729354       26.6816511984        3.3989701922
  H        28.5114374033       21.0860513979       15.9650477472
  H        25.7419410555       19.6502623510        4.1430838065
  H        23.5555784100       19.7087071168        5.3533988058
  H        22.3054780347       16.1722048639        3.2498876283
  H        24.4928243121       16.1346687523        2.0349261466
  H        23.6977824672       17.6785267801        6.7936680558
  H        28.9981196649       21.7236896628        1.7703058330
  H        29.1414595676       21.7560507866       14.6050507483
  H        32.1459710756       18.5591817146        2.9628894026
  H        27.4052141467       19.0815542992        0.0893199954
  H        14.8488957061       19.6555838609        4.1328602044
  H        17.0145045147       19.7051300379        5.3732200851
  H        18.3008860581       16.1903611638        3.2541143378
  H        16.1313381069       16.1568164407        2.0134107613
  H        16.9162137339       17.7043703143        6.8379470981
  H        46.0909934417       15.4420674783        4.0731179517
  H        43.9640134157       15.3817788197        5.3766999580
  H        42.5421942836       18.8045943549        3.1934903239
  H        44.6698605575       18.8402578053        1.8800075454
  H        44.0191914720       17.3329628602        6.8266669814
  H        20.2889550431       17.9262300965        3.4156656648
  H        46.0398654548       15.3959041700       12.0176602139
  H        43.9105033944       15.3417890837       10.7200360622
  H        42.5227475434       18.8012158443       12.8661733833
  H        44.6584134424       18.8415977847       14.1648762326
  H        44.0074713182       17.3235846457        9.2660298461
  H        46.1989497928       26.6825182749       12.6182257212
  H        52.7409738023       21.0625565140        0.1997251790
  H        14.8687329410       19.6776917265       11.8945810479
  H        17.0656781964       19.7571464232       10.7068341225
  H        18.3318206689       16.2342166458       12.8239578229
  H        16.1365364556       16.1785020829       14.0208474212
  H        16.9335356123       17.7220789873        9.2757075599
  H        52.3218857792       21.6732206275       14.2895362418
  H        52.0129780796       21.7019651610        1.5006659664
  H        49.0669650806       18.6078153026       13.1989624258
  H        13.2469683291       19.0166365417       15.9716056205
  H        29.9600040378       12.4530078387        4.2074147616
  H        28.8962420993       10.5335519096        5.4006288290
  H        25.2542577180       11.1956648169        3.2114904523
  H        26.3344444436       13.1091549506        2.0174593647
  H        27.1779389059       11.6768393817        6.7948568862
  H        31.0104693069       22.7570345007        4.0391431855
  H        32.0223699964       24.6338084939        5.3380009780
  H        35.6911505368       24.1552569475        3.1451984236
  H        34.6579003100       22.2866188679        1.8402831495
  H        33.6939817836       23.5690542749        6.7618127442
  H        25.7211324916        8.5926929944        3.4113947761
  H        30.9346658749       22.7259723691       11.9477908520
  H        31.9635386164       24.5828518364       10.6326159232
  H        35.6168678656       24.1155742165       12.8541959840
  H        34.5719436555       22.2603266378       14.1661581122
  H        33.6680060372       23.5547800204        9.2006841658
  H        40.5959389436       17.0944241903       12.6453584946
  H        32.5139882670       14.1507782857        0.2492853973
  H        29.8708522976       12.5571417522       11.9184027825
  H        28.8455539475       10.6545385247       10.6692949139
  H        25.1801716883       11.2113327018       12.8497390080
  H        26.2276389022       13.0996605850       14.1081157209
  H        27.1576991503       11.7026725578        9.2337644996
  H        33.3023846562       14.2210642605       14.4401448482
  H        33.4090363353       14.3987301473        1.6045823222
  H        32.0964766028       18.5279689583       13.1534605170
  H        30.2255912449       14.1959097648        0.0662759934
  H        16.1182651496        2.9634161924        4.1344770056
  H        14.9530902621        4.8205116940        5.3272792012
  H        17.3669269238        7.6860099342        3.2158049302
  H        18.5157099174        5.8184564579        2.0160424041
  H        16.7539862012        5.7398842378        6.7765896753
  H        44.8283058441       32.1403255473        3.9820329608
  H        45.9376260153       30.3414398650        5.3114295309
  H        43.6823676722       27.3782424349        3.1576944794
  H        42.5996580432       29.1901301801        1.8150934299
  H        44.2306730113       29.4369269669        6.7739748680
  H        14.8510399883        8.5460590037        3.3684091959
  H        44.9001045481       32.2340671222       11.9268850016
  H        46.0249921914       30.4130169466       10.6473925955
  H        43.7631819730       27.4841168268       12.8399770721
  H        42.6454266445       29.3178319274       14.1190493780
  H        44.2687756228       29.4706746003        9.2130557603
  H        35.0752658814       26.6200816144       12.6272587843
  H        36.6052769609       35.1340719131        0.1857621699
  H        16.1436868492        3.0131630187       11.8993300917
  H        14.9741052490        4.8565377976       10.6835280864
  H        17.3968761177        7.7474052746       12.7495444916
  H        18.5439555078        5.8934769286       13.9771779929
  H        16.7651438508        5.7558608074        9.2141725599
  H        36.2791782960       34.4821731629       14.2681283786
  H        36.3816049160       34.2089030267        1.5046862604
  H        40.5806955536       33.2032586772       13.1484381612
  H        17.4711374465        1.9475422136       15.9691341034
  H        28.7681672795       18.9738045677        4.3592982393
  H        28.9349686184       18.4626976183       11.8604700617
  H        31.6754368888       15.7500542144       11.5413166870
  H        31.2625636671       15.4837075808        4.4799097825
  H        28.5962254792       17.1865751131        6.8309519710
  H        29.6850936144       15.0117518385        6.8892249791
  H        30.5550542760       20.0116815878       10.0329815339
  H        32.7163479796       17.7510888164        9.3672968938
  H        18.8538207836        0.8690927002        4.3404090992
  H        40.5279139299       35.2287759513       11.9467915844
  H        42.3248334810       34.4193091518       11.5850396371
  H        22.0876855306        0.6918486997        4.3568475424
  H        11.5968664460       18.7128814996        4.3875092946
  H        52.2647900635       18.4308439987       11.6725340352
  H        49.2551613702       16.4766652649       11.5792047092
  H        10.1504403724       15.7981314051        4.2977270107
  H        50.8497249301       17.6924757642       11.9491185768
  H        10.0460597857       17.3945170117        4.0570917935
  H        20.2151018941        0.0021823475        4.0470492934
  H        39.1838786154       36.1246360353       11.6814271717
 Ni        31.0280043297       17.8744125196       10.9087739625
 Ni        31.1155114888       16.3993847483        8.3216440305
 Ni        30.1394796353       18.8206207739        7.8314093603
 Ni        30.3097315914       17.4443071842        5.2501318450
  O        10.6498775461       14.3651610790       13.4807114266
  O        12.6131462846       14.6575206916       14.5787440238
  O        49.1478439331       16.8459627692       15.9846468723
  O        50.3501613045       20.9360442692       13.6430848844
  O        48.3485063520       20.5933113030       14.6608559453
  O        11.0511863685       17.0539843231       14.4954881406
  O        50.3208999544       20.8816871638        2.4119177723
  O        48.3466997052       20.5867230892        1.3321951886
  O        49.5435094255       18.2484514988        2.0733896030
  O        12.3586982380       18.6245369903        0.0047528928
  O        48.6931683828       14.1486704108       14.7461618308
  O         8.2098592033       14.2103944774        1.3276089956
  O        10.7353255566       14.5067494654        2.6694534740
  O        12.5717326595       14.5828082825        1.3335844473
  O        22.8449853166        2.0447662597       13.4816335922
  O        21.6058234025        3.5927401931       14.5846444847
  O        42.0583203137       34.1376506717       15.9738682790
  O        37.9818307606       33.1381821272       13.5674664726
  O        39.2181805542       31.5762823723       14.6616369207
  O        20.3086239774        1.0400722531       14.4971558268
  O        38.0247014253       33.1858411820        2.4202682720
  O        39.2192832449       31.5838645087        1.3314112469
  O        40.6523404532       33.7694509662        2.0652920727
  O        18.2557282053        1.3762473788        0.0019451552
  O        44.6221728873       35.1006047171       14.7536194583
  O        24.2054291817        0.0000327926        1.3258679526
  O        22.7534278897        2.0581599103        2.5894020169
  O        21.6253081651        3.5969809431        1.3495510514
  O        27.5085757340       18.7491182907       13.4125035900
  O        26.7318873778       17.0015270358       14.6541752623
  O        30.6662442739       19.4082311584        0.0737061669
  O        33.5448765197       16.3388485355       13.5869581912
  O        34.2728774363       18.1702684604       14.7284898869
  O        29.5715685983       17.0722352553       14.5743047194
  O        33.5608987192       16.3395650770        2.4180809665
  O        34.3006379970       18.2425728522        1.4118008523
  O        31.6487858082       18.3148046518        2.1660122062
  O        30.3208535799       15.1621808226        0.0828196633
  O        28.5529921652       21.0357008142       14.8949728302
  O        28.5134671266       20.9587044653        1.4161736931
  O        27.4601142267       18.6773439301        2.6675191449
  O        26.6927361055       16.9321599002        1.4188203023
  O        13.1477316775       18.6932887699        2.5919193265
  O        13.9185774347       16.9159696594        1.4093413302
  O        50.5957374649       19.3502324143        0.0255352233
  O        47.6831006918       16.3269843843        2.4223794152
  O        46.9510838150       18.1756255673        1.3301253293
  O        11.0693598720       17.0156687237        1.4947373369
  O        47.6747019897       16.3359789029       13.6474021943
  O        46.9264024618       18.2359453642       14.6589542992
  O        49.5682804504       18.3177208481       13.9770600512
  O        10.3185106608       15.1001908481        0.0021632065
  O        52.6707339626       21.0279420634        1.2469325685
  O        12.1468039583       20.8912395847       14.6681290392
  O        13.1066169620       18.6140165562       13.3206254078
  O        13.9567649317       16.9871389452       14.6598223745
  O        29.9987143890       14.4312871083        2.6678348039
  O        28.0768574579       14.6595735751        1.4863884322
  O        32.1352355656       16.8617304015        0.0718667763
  O        30.9665987354       20.9510933244        2.4164937117
  O        32.9473189280       20.6014525723        1.3441534874
  O        29.5649117541       17.0811499990        1.5816893100
  O        30.8731222125       20.9457079944       13.6555914518
  O        32.8783380246       20.5898862333       14.6626965709
  O        31.6579323620       18.3059157674       13.9950022433
  O        28.2905568972       18.6825089373        0.0778998423
  O        32.4932055121       14.2113231064        1.3284780051
  O        32.4041700777       14.2254422716       14.8113901538
  O        29.9096351142       14.4402027414       13.4932060646
  O        28.0084592386       14.6498925487       14.7307021475
  O        17.8892785837        1.9667046923        2.6678946325
  O        18.9563230814        3.5272289176        1.4130832748
  O        39.1686822520       34.1388883033        0.0023246889
  O        43.2802449359       33.0589992210        2.3368410201
  O        42.0345642639       31.5064795955        1.2467363904
  O        20.3179092215        1.0369932472        1.4851886268
  O        43.2760774210       33.1825875290       13.5697817320
  O        42.0052726130       31.5841105459       14.5778757709
  O        40.5791998206       33.7753265904       13.9310035963
  O        22.3675655950        1.3849358058        0.0030690682
  O        36.6727912232       35.0997897718        1.2384252402
  O        16.4456288389        0.0643480299       14.6631816460
  O        17.9365627041        2.0435348733       13.3212939421
  O        18.9191772942        3.5932123110       14.6609052463
  O        29.8147609871       18.8272978471       12.0745669499
  O        29.7059037181       19.0486064458        4.0855561765
  O        31.2155783333       16.4092946376       12.0916963114
  O        31.2743083682       16.3335452290        3.9997388967
  O        32.2209699571       16.9936638582        9.7372954176
  O        30.3709542480       15.6851617764        6.7538909162
  O        31.5728097872       17.8853390261        6.8265229176
  O        31.0127975663       19.2704144659        9.5970792354
  O        28.8014813568       18.0768891853        6.4886235132
  O        39.4567322257       35.2438884442       11.9968871977
  O        19.1415986382        0.0046048829        3.9956308145
  O        41.9693352832       35.1723500029       12.0821112737
  O        21.6912314173       -0.0695038592        3.9010932852
  O        51.3649195809       18.6142861143       12.0002643754
  O        10.7510469889       18.7472243694        3.9100513143
  O        50.0795275724       16.4128191699       12.0866471448
  O         9.5245441342       16.4830119296        3.9963501933
 Zr         9.2961341625       16.0527870077       14.1771937893
 Zr        49.8359923251       16.0067291173        1.7517108746
 Zr        22.0734099774        0.0306053746       14.1837947667
 Zr        42.4611593327       35.1539115649        1.8062066195
 Zr        29.6144596820       19.1163045455       14.2746105976
 Zr        29.5877467626       19.1834345346        1.8697960936
 Zr        11.0372027069       19.0521508574        1.8326933827
 Zr        11.0431253393       19.1549839251       14.2460935768
 Zr        31.3449978770       16.0939091638        1.8597378574
 Zr        31.3781267327       16.0354576999       14.2599859526
 Zr        18.6014580772       -0.0010856173        1.7683979352
 Zr        18.5067760927       -0.0072470186       14.2088200731
 Zr        12.3010209705       16.3233066800       15.9850402540
 Zr        48.6155892683       18.8329132894        0.0153696097
 Zr        20.3161904705        2.4743086598       15.9857885983
 Zr        40.6438124057       32.6874250469       15.9731326170
 Zr        28.3416316678       16.3557840164        0.0812465675
 Zr        32.6334662330       18.8413496339        0.0502699279
  H        32.3895725175       18.3956244048        6.6953235936
  O        28.2087495064       19.5694055569        8.5767759406
  H        27.8934981270       19.0492032569        7.7907730328
  H        27.9188781084       19.0798300517        9.3653218390
  O        30.2886666364       20.5199435305        6.4873421053
  H        30.1260878657       20.1349184833        5.5782368699
  H        29.5638532291       21.1507513417        6.6305736183
  H        30.4061227966       15.5356152752        9.2305786507
