     569
 i =      159, E =     -4760.4103867124
  C        11.8588009210       14.0535221792       13.7364180369
  C        12.4563207877       12.8906447419       13.0180741168
  C        11.7044656227       12.1714134759       12.0767726169
  C        12.2808568262       11.1092094804       11.3844415047
  C        13.6215626909       10.7397190442       11.6118946463
  C        14.3549302413       11.4436524091       12.5849388799
  C        13.7820323494       12.5086337180       13.2764311522
  C        14.2610633389        9.6490207330       10.8385183475
  C        14.2562604428        9.6568663614        9.4168238260
  C        13.7429971673       10.7589615580        8.6629443888
  C        49.1269034011       21.2331811394       13.8745738797
  C        48.5501471720       22.4011889348       13.1474897967
  C        49.3001880570       23.0684864125       12.1665009456
  C        48.7332692486       24.1076557817       11.4333175326
  C        47.4027620663       24.5093414261       11.6619998260
  C        46.6718274031       23.8605128556       12.6755460746
  C        47.2342524520       22.8155726152       13.4048692992
  C        46.7724873238       25.5870283351       10.8647370233
  C        46.7613136996       25.5573409941        9.4429786637
  C        47.2612060006       24.4422211018        8.6994958511
  C        14.8602473567        8.5705627043        8.7035537023
  C        14.8919574998        8.5971476913       11.5151636381
  C        49.1132572593       21.2033916618        2.1504463426
  C        48.5278723839       22.3648123753        2.8776596365
  C        49.2670680856       23.0253961344        3.8706706530
  C        48.6907671488       24.0599768561        4.6021397970
  C        47.3603969737       24.4568267393        4.3638433715
  C        46.6400143955       23.8120430360        3.3402238888
  C        47.2135397441       22.7761108318        2.6084470231
  C        46.7219499710       25.5318230542        5.1548449353
  C        46.7335256492       25.5281316850        6.5765508503
  C        47.2489118775       24.4289011053        7.3329436968
  C        40.6319947586       17.1343766186        7.3353492966
  C        40.6572333094       17.1815931566        4.5266459139
  C        11.8830550516       14.0865899629        2.2906938575
  C        12.4724194725       12.9108735259        2.9949829890
  C        11.7147687435       12.1773368601        3.9207183970
  C        12.2814213716       11.0949036539        4.5891101129
  C        13.6204113681       10.7215747590        4.3576291024
  C        14.3585883492       11.4375743961        3.3973171005
  C        13.7930966277       12.5187149523        2.7246329405
  C        14.2539802628        9.6247656641        5.1279880767
  C        14.2525170635        9.6445992515        6.5498209672
  C        13.7424945803       10.7534711396        7.2969018493
  C        22.5115691619        3.2457526736       13.7462274364
  C        23.2235957013        4.3514265291       13.0438303795
  C        24.2194141720        4.0721642217       12.0959772862
  C        24.8444477277        5.1118002639       11.4119229775
  C        24.4897205885        6.4539440519       11.6544315756
  C        23.5217811729        6.7246460887       12.6390926600
  C        22.8923623581        5.6868826126       13.3219196148
  C        25.0949996328        7.5607904644       10.8778203220
  C        25.0733247976        7.5514799486        9.4558001296
  C        24.3765531119        6.5496045539        8.7081180290
  C        38.3031925549       31.9308615174       13.8451876933
  C        37.5738692185       30.8409269247       13.1367869981
  C        36.6101788641       31.1441435411       12.1631999191
  C        35.9936460403       30.1231514260       11.4458451604
  C        36.3272907347       28.7750719874       11.6807888804
  C        37.2614446071       28.4789989570       12.6908708108
  C        37.8815690914       29.4988024744       13.4074907535
  C        35.7245710713       27.6846848655       10.8834137577
  C        35.7476215095       27.7062533788        9.4622508450
  C        36.4533345671       28.7095341661        8.7260455854
  C        25.6968446478        8.6216480182        8.7360939217
  C        25.6876334371        8.6385918889       11.5484841376
  C        38.3290340716       31.9643044124        2.1611109934
  C        37.6039961668       30.8954003873        2.9051421101
  C        36.6777488522       31.2129092295        3.9102610678
  C        36.0610373258       30.2004382505        4.6420965427
  C        36.3563549617       28.8459498263        4.3908083628
  C        37.2612838460       28.5382674982        3.3566069959
  C        37.8806694673       29.5474975484        2.6264784093
  C        35.7393557631       27.7522622483        5.1745799742
  C        35.7547370706       27.7413112089        6.5962326183
  C        36.4573029512       28.7258245418        7.3596049638
  C        46.1355178570       26.6207771616        7.2866800739
  C        46.0881354266       26.5802634479        4.4787886008
  C        22.4630704351        3.2559915068        2.2615266047
  C        23.1619599754        4.3637544973        2.9807054395
  C        24.1686504124        4.0762246110        3.9162705922
  C        24.8014241016        5.1054292437        4.6092481945
  C        24.4474816238        6.4516890000        4.3896575523
  C        23.4642376871        6.7325346898        3.4221060413
  C        22.8270307040        5.7036562118        2.7292751265
  C        25.0795934713        7.5491044406        5.1639971298
  C        25.0662737605        7.5448499730        6.5865871044
  C        24.3712080964        6.5478622392        7.3414148026
  C        26.6164594435       17.8582311857       13.7883980206
  C        25.3090501562       17.8947228030       13.0618025740
  C        25.0563826853       18.8783491936       12.0926195667
  C        23.8449897207       18.8936333845       11.4035419365
  C        22.8498534935       17.9284270529       11.6610842275
  C        23.0999737319       16.9669475175       12.6584434724
  C        24.3133667450       16.9461899450       13.3452961803
  C        21.5769872534       17.9109278173       10.8960714486
  C        21.5767339388       17.8806415200        9.4736790367
  C        22.7813088801       17.7441689103        8.7138721153
  C        34.4258129109       17.2186951287       13.9152583322
  C        35.7198594757       17.1480305743       13.1757863907
  C        35.9112110381       16.1876358468       12.1702858686
  C        37.0930241087       16.1659890542       11.4341847394
  C        38.1149012110       17.1030620288       11.6835558180
  C        37.9263746568       18.0409696469       12.7169991109
  C        36.7428716978       18.0681622268       13.4505118778
  C        39.3696723279       17.1094279078       10.8973727557
  C        39.3687214570       17.1348631290        9.4755911696
  C        38.1640498572       17.2640638287        8.7150849364
  C        20.3305064450       17.9027910695        8.7644850017
  C        20.3516848941       17.9216792593       11.5775258320
  C        34.4813688971       17.2496412486        2.1825353770
  C        35.7841564789       17.1817916329        2.9069901748
  C        35.9972012052       16.1981145218        3.8842296473
  C        37.1812943630       16.1815115786        4.6155039525
  C        38.1799498385       17.1484162757        4.3891872397
  C        37.9729398701       18.1078876061        3.3807887981
  C        36.7865532262       18.1292600561        2.6519606322
  C        39.4246235978       17.1655369555        5.1879352788
  C        39.3972128116       17.1652098221        6.6089107670
  C        38.1776528812       17.2767061620        7.3484798394
  C        35.1204127761       26.6635264477        7.2987262345
  C        35.1368212005       26.6900360618        4.4900652491
  C        26.5877611018       17.7953438956        2.3646079979
  C        25.2696004455       17.8421899164        3.0632936091
  C        25.0030326224       18.8429409287        4.0094759889
  C        23.7795296314       18.8705191978        4.6726517764
  C        22.7947192403       17.8959870310        4.4147415301
  C        23.0557163292       16.9209677302        3.4352136459
  C        24.2790236096       16.8927193452        2.7685302684
  C        21.5289484908       17.8763753035        5.1839169098
  C        21.5519352275       17.8604373543        6.6053940107
  C        22.7692013454       17.7335493079        7.3476334357
  C        14.0470980425       17.8280123569        2.2944151975
  C        15.3514137563       17.8820292380        3.0200701165
  C        15.6100851817       18.8819477511        3.9706542005
  C        16.8191336210       18.8982633304        4.6637666746
  C        17.8040087856       17.9174331602        4.4287166397
  C        17.5502360181       16.9422002573        3.4456512121
  C        16.3407419922       16.9211873243        2.7542569158
  C        19.0728604242       17.8943171271        5.1981677263
  C        19.0708903404       17.8877472984        6.6207184156
  C        17.8633970164       17.7927413149        7.3817377776
  C        46.8064607921       17.2211642067        2.1661952520
  C        45.5197646359       17.1666318729        2.9177163898
  C        45.3139502217       16.1931979460        3.9074345726
  C        44.1351785127       16.1826391084        4.6483798359
  C        43.1326792191       17.1456416717        4.4210715912
  C        43.3364388198       18.0996829476        3.4058110385
  C        44.5157931335       18.1141589367        2.6660065017
  C        41.8793174576       17.1601197138        5.2087558617
  C        41.8809432005       17.1510595658        6.6305195623
  C        43.0878427981       17.2394346281        7.3929292105
  C        20.3173404888       17.8918929188        7.3296872159
  C        20.2974310211       17.8728429354        4.5163506253
  C        46.7840650389       17.2290061775       13.8870431131
  C        45.4778309370       17.1174201184       13.1779795270
  C        45.2606281269       16.1196725822       12.2157173609
  C        44.0709513050       16.0898445417       11.4923457650
  C        43.0690725805       17.0541820410       11.7152398687
  C        43.2754549383       18.0194892579       12.7183348237
  C        44.4666198056       18.0562584663       13.4361353589
  C        41.8242062261       17.0788058029       10.9162371948
  C        41.8529257364       17.1072563426        9.4956835719
  C        43.0744769601       17.2165611960        8.7591313991
  C        46.1532901963       26.6372192470        8.7212330406
  C        46.1626577428       26.6562125211       11.5308635166
  C        14.0454903614       17.8311534996       13.7036061742
  C        15.3664504109       17.9032073298       13.0134579092
  C        15.6413705190       18.9156397590       12.0820956227
  C        16.8706318713       18.9493473861       11.4275603249
  C        17.8524162961       17.9697225725       11.6786926406
  C        17.5845310025       16.9867874100       12.6486968077
  C        16.3573904430       16.9524216651       13.3066017728
  C        19.1195116427       17.9392006353       10.9100102435
  C        19.0952619955       17.9098064732        9.4887065505
  C        17.8753615122       17.8025754034        8.7477647091
  C        28.8100248427       14.0854339740        2.3664196757
  C        28.2054957163       12.9128987519        3.0607163009
  C        28.9208593607       12.2001687766        4.0336626284
  C        28.3257735373       11.1249570964        4.6888479427
  C        27.0003962503       10.7418323329        4.3992474004
  C        26.3067809655       11.4379195423        3.3927678528
  C        26.9001015308       12.5113724038        2.7340159629
  C        26.3309494834        9.6632977867        5.1621737723
  C        26.3086017297        9.6933395406        6.5832868736
  C        26.8022685620       10.8107663140        7.3287210150
  C        32.1513631503       21.2720819897        2.1507657594
  C        32.7326636350       22.4471599097        2.8655269482
  C        31.9825221590       23.1193902537        3.8421458894
  C        32.5504727036       24.1598666919        4.5715425865
  C        33.8835943736       24.5529788503        4.3449002026
  C        34.6146721103       23.9007825143        3.3344383628
  C        34.0488903165       22.8566679535        2.6063425465
  C        34.5165007783       25.6228597092        5.1481489007
  C        34.5159509291       25.5878993247        6.5693710519
  C        34.0033919454       24.4730757930        7.3052807945
  C        25.6983205487        8.6148873652        7.3014359182
  C        25.6987649264        8.6093555106        4.4887583509
  C        32.1051339650       21.2321586388       13.8822118269
  C        32.6977885586       22.3817625897       13.1360802878
  C        31.9561063279       23.0564840297       12.1537908112
  C        32.5364836515       24.0841276566       11.4142260913
  C        33.8723257472       24.4691576080       11.6411395311
  C        34.5974345427       23.8087946962       12.6513783523
  C        34.0219162783       22.7742414998       13.3847183209
  C        34.5091415923       25.5525004841       10.8577697954
  C        34.5111746800       25.5523911062        9.4360775538
  C        34.0006930598       24.4564393512        8.6717533867
  C        40.6172496773       17.1150231972        8.7695834998
  C        40.5921731734       17.0974221674       11.5788049935
  C        28.7225598109       14.0970048722       13.7770219139
  C        28.1151744242       12.9476220842       13.0431106044
  C        28.8526802091       12.2407368128       12.0807546455
  C        28.2728417607       11.1782309078       11.3917101948
  C        26.9392255496       10.7952279370       11.6398055825
  C        26.2193738197       11.4884012219       12.6309787569
  C        26.7976497576       12.5510432504       13.3224008158
  C        26.2995723862        9.7009714266       10.8706406440
  C        26.2948497113        9.7120633030        9.4488584445
  C        26.7939474727       10.8199611667        8.6943589093
  C        18.1354702275        3.1812034255        2.3223065221
  C        17.4062641270        4.2784089469        3.0208989071
  C        16.3903532437        4.0000912250        3.9482367379
  C        15.7426835751        5.0401038615        4.6117093629
  C        16.0948263639        6.3838058181        4.3722003025
  C        17.0844337954        6.6532884006        3.4086567460
  C        17.7334827919        5.6159191835        2.7436108886
  C        15.4704606595        7.4914715208        5.1352486975
  C        15.4855769687        7.4906507374        6.5569601143
  C        16.1871581422        6.4970448952        7.3101201814
  C        42.9460321210       31.8596190935        2.0780175373
  C        43.6464657703       30.7719544243        2.8219559739
  C        44.5917565889       31.0933234304        3.8082386009
  C        45.1974799365       30.0877873874        4.5559134842
  C        44.8713474653       28.7346850826        4.3408319937
  C        43.9458498744       28.4203182235        3.3273184426
  C        43.3370127272       29.4254379120        2.5792698101
  C        45.4888526413       27.6553641482        5.1440444630
  C        45.4928817947       27.6809355625        6.5657406679
  C        44.8057860150       28.6889765318        7.3123672435
  C        14.8565200396        8.5630747401        7.2693388789
  C        14.8753039680        8.5633210374        4.4566762972
  C        42.9465559761       31.9617281102       13.8039203110
  C        43.6918823149       30.8855941701       13.0904920377
  C        44.6560951601       31.1915394546       12.1178322328
  C        45.2776508172       30.1719566007       11.4001244032
  C        44.9543010356       28.8215967246       11.6381131815
  C        44.0213320620       28.5239224188       12.6493781799
  C        43.3930543920       29.5406712633       13.3615658412
  C        45.5632505366       27.7241758445       10.8528371536
  C        45.5333861600       27.7174105352        9.4315364260
  C        44.8270473919       28.7076117512        8.6785537081
  C        35.1176781662       26.6454034983        8.7331717341
  C        35.1258929960       26.6057442250       11.5430060198
  C        18.1486644682        3.2471615837       13.7014305452
  C        17.4301277696        4.3439377104       12.9921736610
  C        16.4148341092        4.0526636969       12.0686816022
  C        15.7665270591        5.0833136714       11.3933488040
  C        16.1213165810        6.4285388707       11.6159763600
  C        17.1128329053        6.7119027381       12.5730957554
  C        17.7605341833        5.6829902460       13.2528253277
  C        15.4907424363        7.5242006077       10.8435617739
  C        15.4965377871        7.5075028815        9.4224323861
  C        16.1933569531        6.5058442688        8.6757256664
  H        10.6722325711       12.4653210901       11.9000019312
  H        11.6944931110       10.5504746954       10.6581586044
  H        15.3921182339       11.1694137951       12.7663144627
  H        14.3516804592       13.0722008819       14.0114614359
  H        13.3759517487       11.6310561147        9.1962806708
  H        50.3228837115       22.7484073522       11.9817437961
  H        49.3197649869       24.6229073536       10.6757370274
  H        45.6423709709       24.1613644459       12.8587773108
  H        46.6632873980       22.2903135219       14.1669854531
  H        47.6298024884       23.5758804451        9.2412008091
  H        14.8724817031        8.5885056069       12.6034742065
  H        50.2870982394       22.7024840296        4.0655836348
  H        49.2691743094       24.5753673259        5.3656781849
  H        45.6106628808       24.1094166582        3.1510855732
  H        46.6527895455       22.2540368285        1.8367714370
  H        47.6077336417       23.5518017395        6.8020415719
  H        40.6658493092       17.1544510614        3.4387249732
  H        48.6870976292       14.0949709049       15.7948758606
  H        10.6811542426       12.4660899445        4.0977976961
  H        11.6895546943       10.5241836981        5.3014827083
  H        15.3942181939       11.1601383537        3.2118117423
  H        14.3656268139       13.0884665987        1.9965519072
  H        13.3756866579       11.6220929530        6.7582642197
  H        47.9301632236       14.2183247869        1.7160326946
  H        47.7801476791       14.3739849184       14.4901519509
  H        49.0845891364       18.5527768265        2.8727742877
  H        10.4161421383       14.1343142707        0.0038946200
  H        24.4818438556        3.0338369855       11.9057030898
  H        25.6171385834        4.8939167301       10.6778249862
  H        23.2396774873        7.7573276644       12.8335886489
  H        22.1233509374        5.8877622284       14.0638412483
  H        23.8145823997        5.7923532835        9.2469568744
  H        36.3696693562       32.1870774993       11.9710118740
  H        35.2456663144       30.3602737968       10.6924908555
  H        37.5259739520       27.4403813085       12.8782829822
  H        38.6287616894       29.2799713294       14.1665911401
  H        37.0239202365       29.4546872036        9.2726652907
  H        25.7192921484        8.6236091388       12.6364672669
  H        36.4623292660       32.2591719944        4.1147860977
  H        35.3371201938       30.4512807068        5.4142657185
  H        37.5006784901       27.4958041665        3.1574199834
  H        38.6018660960       29.3160717802        1.8463917791
  H        37.0323412664       29.4828909606        6.8341921927
  H        46.1097463174       26.5877353212        3.3907567661
  H        44.6684089661       35.1162882718       15.8088058110
  H        24.4457394075        3.0376016810        4.0819956332
  H        25.5851341291        4.8755374272        5.3279591759
  H        23.1796906640        7.7675033248        3.2435683072
  H        22.0520704878        5.9178649474        1.9969082551
  H        23.8046128453        5.7896317990        6.8086926095
  H        44.9540267901       34.3904340343        1.7002489867
  H        44.9018376218       34.2069022140       14.4854609290
  H        40.6666101370       33.2097467313        2.8584449714
  H        23.1505675345        1.9583645297        0.0095153422
  H        25.8240061825       19.6234565730       11.8953403760
  H        23.6537651091       19.6628854903       10.6583182953
  H        22.3439433181       16.2125274662       12.8666436079
  H        24.5163755027       16.1905735055       14.1007468907
  H        23.7204711603       17.6174724809        9.2444861662
  H        35.1162524691       15.4717447050       11.9741323554
  H        37.2404224123       15.4136014887       10.6624499354
  H        38.7077138553       18.7717779568       12.9152399271
  H        36.5810235774       18.8074743849       14.2316074419
  H        37.2233871707       17.3837404474        9.2447909122
  H        20.3580369758       17.9682769518       12.6651303849
  H        35.2145003936       15.4651609348        4.0659138136
  H        37.3469337556       15.4153672217        5.3697968722
  H        38.7384008044       18.8602824576        3.2022793957
  H        36.6039969699       18.8869060269        1.8934820234
  H        37.2475681694       17.4043695436        6.8022057359
  H        35.1055462453       26.7201278346        3.4026107753
  H        28.5060002871       21.0818538192       15.9924189716
  H        25.7670535559       19.5913840505        4.2072282177
  H        23.5716631576       19.6506766449        5.4017557275
  H        22.3037778955       16.1616043491        3.2305228619
  H        24.4970363997       16.1282652541        2.0266131282
  H        23.6991201716       17.5979457891        6.8035035267
  H        28.9967706651       21.7137790886        1.7770355948
  H        29.1538351921       21.7494398118       14.6281879005
  H        32.0971309287       18.5611571189        2.9928843334
  H        27.3861934045       19.0635141605        0.0989635048
  H        14.8532397473       19.6420517588        4.1512021965
  H        17.0156843682       19.6799243250        5.3944562991
  H        18.3000180773       16.1771372778        3.2546846261
  H        16.1335800729       16.1546235173        2.0113560970
  H        16.9205749055       17.6801438080        6.8543866232
  H        46.0945824080       15.4580867956        4.0886598554
  H        43.9753137939       15.4191914872        5.4065586529
  H        42.5705787820       18.8514374384        3.2265689981
  H        44.6896942215       18.8646511839        1.8984791253
  H        44.0308843706       17.3576521071        6.8668873537
  H        20.2922329179       17.9074965160        3.4283478852
  H        46.0404366283       15.3833736976       12.0349702934
  H        43.9058105806       15.3170790934       10.7447093010
  H        42.5061682638       18.7677930501       12.8972060354
  H        44.6482907170       18.8216363710       14.1866421748
  H        44.0073132842       17.3160462965        9.3064681603
  H        46.1997384043       26.6828507137       12.6182993329
  H        52.7412965010       21.0626642956        0.1998204340
  H        14.8818800569       19.6697319536       11.8876748888
  H        17.0830729792       19.7371465471       10.7080165867
  H        18.3341966481       16.2244108092       12.8503813115
  H        16.1350348614       16.1804494817       14.0392280563
  H        16.9414724866       17.6974292222        9.2917071138
  H        52.3227942934       21.6733910948       14.2890302149
  H        52.0133722067       21.7021427862        1.5007720137
  H        49.0672382981       18.6074525043       13.1990993516
  H        13.2478989056       19.0158941774       15.9723792869
  H        29.9368720982       12.5081777429        4.2690902808
  H        28.8829977865       10.5711242201        5.4411634487
  H        25.2821893341       11.1537474428        3.1619184055
  H        26.3613296933       13.0700409100        1.9727217454
  H        27.1624707896       11.6819532716        6.7894978147
  H        30.9593223780       22.7997843593        4.0251865441
  H        31.9648184634       24.6819377198        5.3251080399
  H        35.6462407167       24.1964393196        3.1544836328
  H        34.6182646253       22.3253426943        1.8472367756
  H        33.6361887991       23.6111604883        6.7556364735
  H        25.7340445618        8.5873124698        3.4009643295
  H        30.9241333236       22.7610278293       11.9794107159
  H        31.9542852353       24.6091748452       10.6600096080
  H        35.6312998520       24.0959465205       12.8319480597
  H        34.5862129323       22.2420813565       14.1470930232
  H        33.6314922529       23.5812396114        9.1985699042
  H        40.5834263014       17.0503458230       12.6661050851
  H        32.5208743464       14.1446774099        0.2616889255
  H        29.8846929895       12.5299128871       11.8952322048
  H        28.8524757017       10.6259724718       10.6551709559
  H        25.1876988773       11.2053432914       12.8297381086
  H        26.2388048162       13.1009995687       14.0759754456
  H        27.1464673676       11.6984722988        9.2265234559
  H        33.2891646577       14.1879020655       14.4194570874
  H        33.4125582756       14.4068577505        1.6094801453
  H        32.2183083056       18.5924434887       13.2554935111
  H        30.2278269109       14.1906831408        0.0687879793
  H        16.1181241011        2.9636130329        4.1345096951
  H        14.9530855192        4.8208098245        5.3272304337
  H        17.3671420862        7.6861295661        3.2157613782
  H        18.5157460919        5.8185912353        2.0160121112
  H        16.7538683109        5.7398189962        6.7766203919
  H        44.8278461471       32.1404261579        3.9825812365
  H        45.9371953690       30.3415961800        5.3119880033
  H        43.6835164932       27.3782033014        3.1569239424
  H        42.6006947860       29.1900864317        1.8143239283
  H        44.2305334913       29.4368177758        6.7740572852
  H        14.8517853854        8.5467334690        3.3684486262
  H        44.8993357748       32.2342405715       11.9260999494
  H        46.0242887598       30.4132451338       10.6466398879
  H        43.7648937068       27.4841448070       12.8413816255
  H        42.6470419749       29.3178624135       14.1204830979
  H        44.2686221866       29.4705728295        9.2131170317
  H        35.0917676786       26.6124065877       12.6308062634
  H        36.6052141549       35.1343874144        0.1856759803
  H        16.1436444011        3.0131034079       11.8990549426
  H        14.9741272349        4.8565340545       10.6833300586
  H        17.3965128696        7.7473474873       12.7498400958
  H        18.5435666412        5.8934720654       13.9774102733
  H        16.7649309134        5.7556977253        9.2141444766
  H        36.2787649526       34.4827039739       14.2679379421
  H        36.3813798413       34.2091568237        1.5043688044
  H        40.5810541363       33.2033457456       13.1482004675
  H        17.4709927201        1.9480936757       15.9690336933
  H        29.0792190569       19.1706207381        4.5384345044
  H        29.7831515474       19.9795059720       11.6944278950
  H        31.3386453272       15.4093263885        4.4421972482
  H        28.0530547984       17.8106274919        6.6806819220
  H        31.5495583875       19.9375962468        9.5681990175
  H        29.1095602207       16.5310758269        9.5789022908
  H        18.8549949764        0.8693691601        4.3406741241
  H        40.5279147753       35.2290898805       11.9468135865
  H        42.3253453140       34.4202596980       11.5847340303
  H        22.0879508551        0.6921105678        4.3568607151
  H        11.5973347540       18.7127388341        4.3874482585
  H        52.2650813465       18.4310356441       11.6723445315
  H        49.2547509480       16.4770883538       11.5794745133
  H        10.1505104302       15.7980911674        4.2976154436
  H        50.8501292451       17.6926105403       11.9490901822
  H        10.0464181238       17.3944206951        4.0570191456
  H        20.2165693631        0.0025840657        4.0468504527
  H        39.1837700511       36.1245582523       11.6813432297
  H        32.3451595691       18.1118644210        6.9272673108
 Ni        30.6468471348       17.8946945938       11.0734532220
 Ni        30.7334435074       16.0785035719        7.8239109223
 Ni        29.9733324033       18.6722840290        7.9994644218
 Ni        30.2259957603       17.2565483489        5.2466856779
  O        10.6499681277       14.3651614007       13.4807152054
  O        12.6131585102       14.6574878083       14.5787858428
  O        49.1480054634       16.8458878938       15.9845852343
  O        50.3502793621       20.9359092308       13.6429400384
  O        48.3485538461       20.5933418948       14.6607966962
  O        11.0517012691       17.0538827917       14.4956050976
  O        50.3209901118       20.8816608009        2.4119796265
  O        48.3467600911       20.5867764262        1.3322126394
  O        49.5438001444       18.2484359389        2.0733462527
  O        12.3591684476       18.6246917557        0.0048140307
  O        48.6932668879       14.1485550287       14.7461893576
  O         8.2098648315       14.2104205277        1.3277103801
  O        10.7353465115       14.5067593213        2.6694376381
  O        12.5717874106       14.5827719924        1.3335989861
  O        22.8450365856        2.0442773361       13.4818342701
  O        21.6058843819        3.5927602680       14.5841802252
  O        42.0585252431       34.1377284259       15.9737877060
  O        37.9818625390       33.1385841612       13.5676898184
  O        39.2186307990       31.5766268945       14.6621401894
  O        20.3086898332        1.0400683484       14.4970811124
  O        38.0253668871       33.1878140183        2.4196672564
  O        39.2189987584       31.5839214799        1.3320541671
  O        40.6524996684       33.7695943222        2.0652668968
  O        18.2554746509        1.3766445945        0.0018736167
  O        44.6222220834       35.1006031914       14.7536278566
  O        24.2055069654       -0.0000063037        1.3258442747
  O        22.7532013653        2.0576251785        2.5888022779
  O        21.6247481721        3.5962401075        1.3481654061
  O        27.4854084370       18.7499925465       13.5041114271
  O        26.7658792235       16.9258105379       14.6550023173
  O        30.6648460111       19.4077704842        0.0829756228
  O        33.5461625302       16.3308210602       13.6514779714
  O        34.2752528974       18.1836714691       14.7384181274
  O        29.5729005941       17.0738381543       14.5739399055
  O        33.6291916415       16.3305104298        2.4092836884
  O        34.3043221969       18.2547158780        1.4108592723
  O        31.6598786146       18.3113984008        2.1621507916
  O        30.3243295165       15.1571077776        0.0791593538
  O        28.5520341053       21.0361752245       14.9077974057
  O        28.5113087507       20.9518944098        1.4177341944
  O        27.4930609053       18.6118528980        2.7374027770
  O        26.6945924052       16.9302222386        1.4199836405
  O        13.1495106919       18.6927131233        2.5926757895
  O        13.9192859105       16.9160614269        1.4099255876
  O        50.5963286133       19.3502425997        0.0256013993
  O        47.6829664250       16.3272568037        2.4225697678
  O        46.9519894273       18.1760931730        1.3294947868
  O        11.0698259035       17.0154847045        1.4947779402
  O        47.6757540816       16.3354670801       13.6482454448
  O        46.9266433349       18.2358145041       14.6593437477
  O        49.5687585429       18.3177511712       13.9771878905
  O        10.3186675883       15.1001515456        0.0021935349
  O        52.6707775015       21.0278655135        1.2469338180
  O        12.1468509933       20.8912113286       14.6681554809
  O        13.1083587566       18.6135620195       13.3205049095
  O        13.9568166793       16.9868842634       14.6606465055
  O        30.0001146480       14.4351542811        2.6691466000
  O        28.0782024020       14.6579776518        1.4878269912
  O        32.1414798894       16.8612831930        0.0826413445
  O        30.9501781872       20.9519619315        2.4246895522
  O        32.9186012026       20.6552837331        1.3329950314
  O        29.5714414631       17.0715986772        1.5789703370
  O        30.8745152748       20.9527096212       13.6606136756
  O        32.8796359628       20.5855737521       14.6610234567
  O        31.6756966556       18.2641449970       13.9892090094
  O        28.2759710179       18.6744815939        0.0948145572
  O        32.4977660838       14.2113511581        1.3326902944
  O        32.4014139226       14.2167998428       14.8131913280
  O        29.8773256485       14.5068176564       13.4072722167
  O        28.0437906926       14.5847947975       14.7433713024
  O        17.8892202662        1.9667170566        2.6679008993
  O        18.9562834145        3.5272054878        1.4130974867
  O        39.1687135317       34.1390069331        0.0023270464
  O        43.2802623994       33.0590091964        2.3368358884
  O        42.0345808629       31.5064697296        1.2467786772
  O        20.3180612118        1.0371157720        1.4849294649
  O        43.2760732682       33.1826389609       13.5697668497
  O        42.0052840973       31.5841475472       14.5778777071
  O        40.5791311740       33.7752639332       13.9308588476
  O        22.3675955422        1.3848967152        0.0029357957
  O        36.6727330553       35.0999830233        1.2382929043
  O        16.4456618117        0.0644580366       14.6631701235
  O        17.9364963848        2.0434319754       13.3213072062
  O        18.9190862421        3.5931806900       14.6608074945
  O        29.6718234098       19.1221748183       12.1439077200
  O        29.8277777655       18.8300001024        4.0106578614
  O        31.1798143185       16.3405717363       12.0780588887
  O        31.4650647145       16.2706769730        3.9972437724
  O        29.9832630716       16.9243877059        9.4062268757
  O        30.1564614239       15.6047333798        6.2478405766
  O        31.4235029336       17.8051741650        6.9184038356
  O        30.7435561506       19.4043780148        9.6443961213
  O        28.8576695234       18.3217985956        6.4966535289
  O        39.4568178559       35.2438677474       11.9968427512
  O        19.1427807781        0.0050256455        3.9955437547
  O        41.9697078232       35.1730340838       12.0821082160
  O        21.6915177885       -0.0693136354        3.9011888215
  O        51.3651945143       18.6142938349       12.0002878083
  O        10.7514662518       18.7471085950        3.9100009303
  O        50.0792049122       16.4127678932       12.0866565433
  O         9.5246179075       16.4830345109        3.9963069289
 Zr         9.2973973532       16.0527542314       14.1773196894
 Zr        49.8366501195       16.0066398182        1.7514405940
 Zr        22.0736628500        0.0309267903       14.1836399625
 Zr        42.4613279968       35.1542539160        1.8061374157
 Zr        29.5825450757       19.1131314493       14.3239379606
 Zr        29.5777281159       19.1581695043        1.9063768452
 Zr        11.0387555631       19.0517269704        1.8328719573
 Zr        11.0444441901       19.1547414682       14.2458476854
 Zr        31.3580026963       16.0917898092        1.8785255379
 Zr        31.3961222520       16.0302190089       14.2925237930
 Zr        18.6016926602       -0.0000457259        1.7684531542
 Zr        18.5069458673       -0.0066853074       14.2089555224
 Zr        12.3026940514       16.3235414725       15.9852848998
 Zr        48.6171043628       18.8331152809        0.0151552242
 Zr        20.3159635712        2.4747217953       15.9854232807
 Zr        40.6443616613       32.6881571777       15.9733211713
 Zr        28.3416444047       16.3430246921        0.0905106498
 Zr        32.6262248346       18.8487785332        0.0808151544
  H        30.6312679164       15.5792082117       11.8091001009
