     572
 i =      233, E =     -4777.6658774235
  C        11.8558363174       14.0507182974       13.7364720482
  C        12.4510599893       12.8871222318       13.0169946626
  C        11.6966501825       12.1669256145       12.0785235050
  C        12.2709338410       11.1035118042       11.3861814377
  C        13.6121800649       10.7340705283       11.6104729597
  C        14.3483065150       11.4393110653       12.5805209387
  C        13.7773609827       12.5051817899       13.2722447642
  C        14.2496373407        9.6421193494       10.8371033132
  C        14.2412808181        9.6476047337        9.4153829304
  C        13.7258030351       10.7483848340        8.6611583057
  C        49.1257929967       21.2337504826       13.8735411849
  C        48.5469526009       22.4001901678       13.1443565657
  C        49.2944667455       23.0659217493       12.1602917313
  C        48.7255805607       24.1031068811       11.4253587025
  C        47.3953962137       24.5052912410       11.6554355515
  C        46.6670032718       23.8579271607       12.6719198464
  C        47.2312287006       22.8147585863       13.4026545426
  C        46.7622002028       25.5818813419       10.8579411330
  C        46.7451620468       25.5506692088        9.4361579126
  C        47.2461757212       24.4366905717        8.6917674473
  C        14.8445623521        8.5607692943        8.7022436180
  C        14.8832113467        8.5919033203       11.5138201888
  C        49.1107975397       21.2039169795        2.1500160365
  C        48.5200825303       22.3644413241        2.8749117786
  C        49.2548655294       23.0329851625        3.8657330086
  C        48.6710195681       24.0650975219        4.5950314277
  C        47.3372631818       24.4512015359        4.3571738485
  C        46.6214505948       23.7989285130        3.3352113794
  C        47.2026716576       22.7660029443        2.6053376459
  C        46.6906696705       25.5215472718        5.1480706607
  C        46.7065548618       25.5188672971        6.5697774065
  C        47.2295329873       24.4225337652        7.3253230783
  C        40.6296692581       17.1417167042        7.3345187500
  C        40.6555274190       17.1863462610        4.5255465025
  C        11.8809743368       14.0842579938        2.2911551560
  C        12.4664728010       12.9059709702        2.9938891422
  C        11.7052693709       12.1730684931        3.9173000545
  C        12.2678620686       11.0882174205        4.5851173502
  C        13.6063412252       10.7119445131        4.3555385043
  C        14.3478732439       11.4270575257        3.3970665518
  C        13.7864124800       12.5105652049        2.7247963456
  C        14.2368681530        9.6136739037        5.1263107579
  C        14.2345245388        9.6332712384        6.5482047799
  C        13.7240052118       10.7420283017        7.2951046612
  C        22.5120775702        3.2459365898       13.7462715528
  C        23.2247233915        4.3512013257       13.0444728796
  C        24.2213205865        4.0716016423       12.0974707452
  C        24.8468153098        5.1109942668       11.4135301976
  C        24.4917691182        6.4531978015       11.6552522837
  C        23.5232009462        6.7242048028       12.6392469362
  C        22.8933300626        5.6867461902       13.3220218640
  C        25.0968841111        7.5600654664       10.8786556688
  C        25.0750330809        7.5509263919        9.4566278803
  C        24.3800264533        6.5480041453        8.7087586927
  C        38.3011097711       31.9320458780       13.8442469969
  C        37.5697451224       30.8432306534       13.1362221072
  C        36.6008151392       31.1486196438       12.1685646813
  C        35.9804825556       30.1292324521       11.4522652614
  C        36.3163222642       28.7809285552       11.6820779199
  C        37.2563576263       28.4825460986       12.6859187990
  C        37.8797362006       29.5007492360       13.4020120747
  C        35.7107554993       27.6917794395       10.8851929428
  C        35.7301135253       27.7149011865        9.4639293782
  C        36.4309674446       28.7206213241        8.7263175668
  C        25.6962930549        8.6224821609        8.7370428382
  C        25.6888045875        8.6380773190       11.5495664790
  C        38.3261118353       31.9644648256        2.1615341361
  C        37.5973376534       30.8964735644        2.9055676920
  C        36.6652109092       31.2158892300        3.9047373502
  C        36.0437280177       30.2051975512        4.6354909926
  C        36.3403542826       28.8498811844        4.3900415355
  C        37.2516194068       28.5400890548        3.3619611736
  C        37.8752438243       29.5476842923        2.6325226080
  C        35.7204740662       27.7576189254        5.1750317964
  C        35.7344206586       27.7490464203        6.5970752289
  C        36.4335366520       28.7366158834        7.3598052384
  C        46.1059441901       26.6092783750        7.2808969598
  C        46.0462779546       26.5645256679        4.4729292775
  C        22.4636725069        3.2557398511        2.2616428465
  C        23.1634566568        4.3630570821        2.9808153883
  C        24.1698561992        4.0752514229        3.9167450029
  C        24.8033892263        5.1041399526        4.6096399844
  C        24.4507893456        6.4507943551        4.3898573701
  C        23.4681277057        6.7318454531        3.4216607374
  C        22.8300854173        5.7033406678        2.7289751040
  C        25.0823998551        7.5484907939        5.1645623935
  C        25.0683595750        7.5444535503        6.5872547726
  C        24.3749366711        6.5463056931        7.3420175480
  C        26.5695812027       17.8254884417       13.7906010249
  C        25.2657335186       17.8666439208       13.0621215635
  C        25.0167894588       18.8473419315       12.0899715404
  C        23.8065412358       18.8600749630       11.3997413924
  C        22.8135284952       17.8935760104       11.6588440705
  C        23.0597228693       16.9354605446       12.6597902584
  C        24.2705654438       16.9187299564       13.3490936763
  C        21.5456574994       17.8696530832       10.8900048860
  C        21.5527976747       17.8456002066        9.4681530938
  C        22.7613825450       17.7127566051        8.7142795133
  C        34.4223555906       17.2220284648       13.9148804029
  C        35.7166029112       17.1521135274       13.1755604794
  C        35.9070541889       16.1937329371       12.1679110907
  C        37.0889424020       16.1725496464       11.4317584334
  C        38.1119329575       17.1079670900       11.6830008737
  C        37.9240961509       18.0438972003       12.7184762147
  C        36.7405739884       18.0706860942       13.4520936614
  C        39.3668930379       17.1148859815       10.8966762739
  C        39.3661454651       17.1419777216        9.4747969208
  C        38.1616521854       17.2715940110        8.7139516001
  C        20.3101053412       17.8701509501        8.7543747450
  C        20.3186048118       17.8682542149       11.5673630687
  C        34.4770490641       17.2505224117        2.1832318696
  C        35.7814310254       17.1811856878        2.9051121076
  C        35.9965480964       16.1977038155        3.8822484700
  C        37.1807209965       16.1832309161        4.6136453117
  C        38.1781061355       17.1515575765        4.3874440950
  C        37.9697888696       18.1097718694        3.3779852814
  C        36.7832695646       18.1292841301        2.6492618066
  C        39.4227701638       17.1707145061        5.1866579636
  C        39.3950184520       17.1719134121        6.6077222317
  C        38.1754543076       17.2837804053        7.3472787760
  C        35.1029879330       26.6704495477        7.3012797664
  C        35.1196527775       26.6929989685        4.4922399448
  C        26.5859444367       17.7900221337        2.3721944887
  C        25.2709735015       17.8419181385        3.0706637890
  C        25.0114397681       18.8307620167        4.0312551193
  C        23.7862551720       18.8588889594        4.6908246324
  C        22.7942616429       17.8965820577        4.4158944144
  C        23.0491191721       16.9336082329        3.4226143794
  C        24.2732997807       16.9046147997        2.7591215056
  C        21.5263484307       17.8742294126        5.1803340904
  C        21.5429708632       17.8460473328        6.6016172986
  C        22.7566039201       17.7111273373        7.3481295220
  C        14.0460437821       17.8289576163        2.2904418588
  C        15.3520317772       17.8859328207        3.0104969312
  C        15.6110618231       18.8856896039        3.9608369496
  C        16.8212603499       18.9019022033        4.6512066428
  C        17.8051600727       17.9213488497        4.4122891650
  C        17.5520675064       16.9478387838        3.4278133623
  C        16.3412309305       16.9266298903        2.7396005508
  C        19.0711355433       17.8934736529        5.1841256351
  C        19.0617645140       17.8738218904        6.6060933212
  C        17.8502447673       17.7723097003        7.3601121455
  C        46.8059641397       17.2217367837        2.1663521556
  C        45.5190888283       17.1682273768        2.9180450704
  C        45.3122581922       16.1956442003        3.9083860297
  C        44.1331550937       16.1864046743        4.6490054402
  C        43.1312668643       17.1498530429        4.4207158254
  C        43.3361325235       18.1031124271        3.4049540926
  C        44.5158068867       18.1163184183        2.6655891211
  C        41.8774792355       17.1657406461        5.2079762920
  C        41.8787116077       17.1580375704        6.6297927714
  C        43.0855077488       17.2466930925        7.3923871852
  C        20.3046847118       17.8715735038        7.3201873246
  C        20.2979316506       17.8774260062        4.5072085806
  C        46.7834623448       17.2294068059       13.8865233892
  C        45.4768700304       17.1187796638       13.1770644722
  C        45.2585489405       16.1217040738       12.2143278898
  C        44.0685529275       16.0929959392       11.4911651321
  C        43.0671162054       17.0577410199       11.7146024674
  C        43.2746652118       18.0224341795       12.7180810441
  C        44.4661497797       18.0581171042       13.4355854114
  C        41.8218363020       17.0836713862       10.9156962689
  C        41.8504370576       17.1137106703        9.4950918283
  C        43.0719963937       17.2235172498        8.7586020231
  C        46.1307500727       26.6279091390        8.7154610771
  C        46.1545968807       26.6520482579       11.5248667145
  C        14.0263474311       17.7938959595       13.7011174723
  C        15.3440963048       17.8503951301       13.0059639313
  C        15.6242237078       18.8706730302       12.0844253366
  C        16.8493857517       18.8993050705       11.4234811266
  C        17.8220835808       17.9077921620       11.6605959367
  C        17.5485336692       16.9139820915       12.6177764127
  C        16.3241774623       16.8836584867       13.2812179831
  C        19.0901139914       17.8841146765       10.8946460288
  C        19.0717822352       17.8686397119        9.4733509817
  C        17.8551821521       17.7689941758        8.7264118296
  C        28.8084198492       14.0859051958        2.3671522490
  C        28.2041064577       12.9147615630        3.0618438754
  C        28.9133609316       12.2147508314        4.0484731911
  C        28.3189245929       11.1390439040        4.7029828905
  C        26.9999195022       10.7435912990        4.4005914615
  C        26.3128233685       11.4277101193        3.3813147833
  C        26.9056487963       12.5012454857        2.7224340105
  C        26.3302414579        9.6652423048        5.1632560514
  C        26.3049155277        9.6965576227        6.5845182446
  C        26.7923555979       10.8165537936        7.3303550890
  C        32.1489892599       21.2656950411        2.1549138196
  C        32.7282094706       22.4365883554        2.8784450623
  C        31.9764705653       23.1053963826        3.8571609559
  C        32.5414172798       24.1493894698        4.5846326986
  C        33.8721391297       24.5502281211        4.3536744230
  C        34.6042454445       23.8994078260        3.3431886869
  C        34.0422307033       22.8516380901        2.6174904544
  C        34.5014982944       25.6255078523        5.1524545034
  C        34.5018352980       25.5921855443        6.5734294724
  C        33.9954604793       24.4755911397        7.3108024889
  C        25.6976016642        8.6161217423        7.3023223981
  C        25.7012727670        8.6091804823        4.4897392127
  C        32.0984651882       21.2324590318       13.8831616825
  C        32.6922536163       22.3808322963       13.1349285512
  C        31.9501020765       23.0545133418       12.1523446420
  C        32.5288987612       24.0846306767       11.4148428152
  C        33.8636315603       24.4725512907       11.6437517833
  C        34.5896098491       23.8121279806       12.6531985333
  C        34.0154717864       22.7754452432       13.3847658951
  C        34.4985188824       25.5578218603       10.8614251508
  C        34.4995954412       25.5580244544        9.4398935950
  C        33.9933507919       24.4592842338        8.6769684196
  C        40.6147659031       17.1222983617        8.7688480607
  C        40.5895855620       17.1016409831       11.5780788688
  C        28.7224576262       14.0969956424       13.7772707365
  C        28.1151173154       12.9472247002       13.0449181467
  C        28.8510976527       12.2436837044       12.0788963189
  C        28.2708976070       11.1815421165       11.3897052920
  C        26.9387527918       10.7956093539       11.6412792500
  C        26.2206767456       11.4854727800       12.6360909079
  C        26.7990713797       12.5479429952       13.3275847499
  C        26.2988633189        9.7016546434       10.8719160432
  C        26.2918871529        9.7140730274        9.4500924237
  C        26.7852766728       10.8247507112        8.6960346706
  C        18.1344744026        3.1796863681        2.3223031804
  C        17.4013435423        4.2749069226        3.0195712224
  C        16.3853035495        3.9930972675        3.9457633532
  C        15.7339077981        5.0307875447        4.6090913651
  C        16.0824064099        6.3755895346        4.3706481927
  C        17.0720643992        6.6485076783        3.4080888610
  C        17.7247458604        5.6134448658        2.7429609867
  C        15.4547413132        7.4811971221        5.1339067596
  C        15.4691587790        7.4801458706        6.5556854932
  C        16.1720780520        6.4875726698        7.3089533449
  C        42.9077874482       31.8536535965        2.0781286963
  C        43.5987255693       30.7584525624        2.8209043186
  C        44.5516962917       31.0751371971        3.8018180738
  C        45.1552876073       30.0680001348        4.5485676958
  C        44.8215647459       28.7161045247        4.3376628302
  C        43.8879575479       28.4056062176        3.3302385817
  C        43.2795357869       29.4130886180        2.5838584557
  C        45.4435837748       27.6372350034        5.1391823659
  C        45.4551409612       27.6653955899        6.5610521421
  C        44.7697926686       28.6732280878        7.3096534175
  C        14.8392587366        8.5522076958        7.2679681883
  C        14.8590640655        8.5526375613        4.4552274400
  C        42.9457660087       31.9613729940       13.8040635067
  C        43.6893836377       30.8842274002       13.0893939883
  C        44.6482926336       31.1882618657       12.1108788982
  C        45.2663137574       30.1672680911       11.3918480716
  C        44.9451676041       28.8171584585       11.6344024716
  C        44.0179929436       28.5215088451       12.6515977331
  C        43.3929045446       29.5396084628       13.3647787495
  C        45.5504581003       27.7182064806       10.8480215014
  C        45.5122337710       27.7081261587        9.4268768226
  C        44.7994877191       28.6951917147        8.6757390582
  C        35.1017021023       26.6526544986        8.7357758725
  C        35.1147081107       26.6119166952       11.5457657755
  C        18.1477717010        3.2472987715       13.7016074343
  C        17.4275466950        4.3429557559       12.9925045086
  C        16.4110640290        4.0495217118       12.0709273912
  C        15.7606897206        5.0785525596       11.3952133356
  C        16.1144662336        6.4244724569       11.6153653262
  C        17.1072296314        6.7100486494       12.5706069516
  C        17.7569347868        5.6826949723       13.2509059703
  C        15.4811211115        7.5182860630       10.8425025017
  C        15.4833960612        7.4992899205        9.4213242190
  C        16.1797282111        6.4973650387        8.6745727850
  H        10.6640245381       12.4608603109       11.9041043229
  H        11.6824262861       10.5438365401       10.6623546942
  H        15.3860064274       11.1652906054       12.7592996316
  H        14.3488879544       13.0695981274       14.0051911609
  H        13.3586766986       11.6206217596        9.1941982831
  H        50.3171009018       22.7462437179       11.9743522305
  H        49.3108561344       24.6166444234       10.6656522610
  H        45.6378045735       24.1586972732       12.8567650314
  H        46.6616216492       22.2911619205       14.1669467003
  H        47.6199305702       23.5721605039        9.2328623319
  H        14.8666816150        8.5851778194       12.6021921191
  H        50.2773732967       22.7181871185        4.0611724477
  H        49.2459494871       24.5865032509        5.3571197187
  H        45.5896755441       24.0877459146        3.1459953847
  H        46.6454696134       22.2379857633        1.8351797931
  H        47.5905032558       23.5467170011        6.7937567271
  H        40.6644805467       17.1578986619        3.4376550288
  H        48.6866658150       14.0950383971       15.7948843178
  H        10.6721662569       12.4644189519        4.0930590346
  H        11.6733164444       10.5181225208        5.2957550127
  H        15.3831319900       11.1472500347        3.2130736526
  H        14.3616710868       13.0797233696        1.9983844057
  H        13.3561518446       11.6101446283        6.7563947462
  H        47.9300746486       14.2161358096        1.7163572363
  H        47.7798074197       14.3734563256       14.4901767392
  H        49.0828029897       18.5542639105        2.8722011594
  H        10.4136716186       14.1334375216        0.0044641725
  H        24.4839611234        3.0332387014       11.9077357417
  H        25.6201002804        4.8929475283       10.6801099635
  H        23.2409901116        7.7569745905       12.8330938216
  H        22.1237847864        5.8879315098       14.0632967533
  H        23.8192290667        5.7897249205        9.2473688423
  H        36.3589564613       32.1919812392       11.9804486389
  H        35.2280298454       30.3679169603       10.7038587140
  H        37.5226285919       27.4435646785       12.8687751788
  H        38.6310631690       29.2804899166       14.1566167831
  H        36.9992530126       29.4682596272        9.2719720328
  H        25.7213973168        8.6224243907       12.6375144671
  H        36.4483495217       32.2625740675        4.1056178974
  H        35.3153159406       30.4586284145        5.4026099963
  H        37.4929620840       27.4972759756        3.1669164993
  H        38.6009475600       29.3140398029        1.8572170282
  H        37.0050815980       29.4958772400        6.8337582372
  H        46.0637764037       26.5707846733        3.3847912998
  H        44.6702999381       35.1160273607       15.8048463884
  H        24.4464760390        3.0365662304        4.0828391510
  H        25.5867340134        4.8735607854        5.3285363243
  H        23.1845338181        7.7669840189        3.2425775172
  H        22.0556287342        5.9183146097        1.9962993917
  H        23.8097261264        5.7870450610        6.8092989990
  H        44.9551096956       34.3883506018        1.6988505692
  H        44.9003334171       34.2058913777       14.4833379441
  H        40.6602186554       33.2098340586        2.8549298857
  H        23.1518285141        1.9582683385        0.0091710452
  H        25.7854819978       19.5905925316       11.8902220731
  H        23.6154261624       19.6260316770       10.6511997078
  H        22.3037004898       16.1808207944       12.8669543564
  H        24.4740496110       16.1663861724       14.1074182417
  H        23.6980039500       17.5814058840        9.2481540022
  H        35.1111781111       15.4794048642       11.9695711339
  H        37.2352699842       15.4215049544       10.6585168930
  H        38.7060824035       18.7735706255       12.9183332943
  H        36.5795403515       18.8086846074       14.2346008484
  H        37.2208024505       17.3910498610        9.2434127448
  H        20.3204541514       17.9082720386       12.6551901114
  H        35.2157436458       15.4627719205        4.0641902697
  H        37.3473089978       15.4174177599        5.3680848377
  H        38.7344767487       18.8627262776        3.1984749716
  H        36.6001025462       18.8861155857        1.8901164940
  H        37.2452694617       17.4106360319        6.8009717688
  H        35.0891290699       26.7211062673        3.4046844103
  H        28.5028965295       21.0797809073       15.9874442316
  H        25.7801479021       19.5691569223        4.2466917413
  H        23.5841883139       19.6293673936        5.4316243050
  H        22.2913927022       16.1836631314        3.2051879537
  H        24.4868178755       16.1491759102        2.0068358823
  H        23.6898234468       17.5774647002        6.8090683860
  H        28.9862266440       21.7140413396        1.7855758002
  H        29.1649212186       21.7380395844       14.6266372355
  H        32.1206298093       18.5350509883        2.9928084882
  H        27.3368801937       19.0541723043        0.1005773369
  H        14.8532857076       19.6442293921        4.1438471048
  H        17.0192580261       19.6815079444        5.3836769461
  H        18.3025853682       16.1840145127        3.2349152757
  H        16.1321944256       16.1612043715        1.9961158712
  H        16.9100363206       17.6657339358        6.8269806496
  H        46.0922625598       15.4600337258        4.0903675992
  H        43.9726361303       15.4235813956        5.4076816346
  H        42.5709163148       18.8553271151        3.2249075631
  H        44.6904947445       18.8661870449        1.8976320571
  H        44.0286103367       17.3648115048        6.8664249632
  H        20.2970998438       17.9213639326        3.4195385893
  H        46.0377247368       15.3848572457       12.0329649081
  H        43.9029548245       15.3206003573       10.7432311101
  H        42.5059993734       18.7712124201       12.8976429851
  H        44.6484068920       18.8231364039       14.1863204134
  H        44.0048055988       17.3226016953        9.3060826641
  H        46.1969322514       26.6807171674       12.6120669402
  H        52.7414167603       21.0623685622        0.1996525520
  H        14.8717408923       19.6351093027       11.9044394518
  H        17.0672850041       19.6931952814       10.7123388127
  H        18.2921638561       16.1424274749       12.8064246694
  H        16.0966206177       16.1046110605       14.0048219149
  H        16.9186977832       17.6597877840        9.2652357438
  H        52.3221868549       21.6723584629       14.2885293942
  H        52.0136349351       21.7028819016        1.5000324125
  H        49.0664039949       18.6092347277       13.1994339949
  H        13.2471986367       19.0164327360       15.9704840157
  H        29.9227179684       12.5342955615        4.2964925982
  H        28.8718164980       10.5947604676        5.4653154826
  H        25.2930362374       11.1346445549        3.1405886430
  H        26.3712586499       13.0505413965        1.9513220879
  H        27.1469963711       11.6906965742        6.7921312511
  H        30.9516330826       22.7874626719        4.0375965183
  H        31.9536008559       24.6712166550        5.3368449847
  H        35.6337743455       24.2003384389        3.1602294206
  H        34.6119713615       22.3232774529        1.8565333489
  H        33.6341694210       23.6113697382        6.7612885630
  H        25.7387150833        8.5861975223        3.4020342764
  H        30.9191522873       22.7560965266       11.9767246975
  H        31.9459096396       24.6095351758       10.6610929483
  H        35.6228273384       24.1009913185       12.8347826361
  H        34.5801559314       22.2435417258       14.1470224049
  H        33.6293556872       23.5828308130        9.2053238154
  H        40.5807764369       17.0530486757       12.6653154605
  H        32.5185052202       14.1483840468        0.2626053534
  H        29.8813920901       12.5363420321       11.8893941838
  H        28.8490298050       10.6324124322       10.6496789368
  H        25.1900648154       11.2003508339       12.8373354761
  H        26.2410805694       13.0959222133       14.0832094850
  H        27.1336634276       11.7050165137        9.2281180953
  H        33.2843508872       14.1846580595       14.4138246766
  H        33.4112826311       14.4062338737        1.6091365624
  H        32.1875620251       18.6458848880       13.2621876298
  H        30.2249583563       14.1934316065        0.0712122420
  H        16.1164851075        2.9556444912        4.1314804591
  H        14.9442671085        4.8087992640        5.3237348988
  H        17.3519731469        7.6822794067        3.2161087154
  H        18.5071091866        5.8188562887        2.0162299814
  H        16.7389821619        5.7304701827        6.7754962828
  H        44.7958479534       32.1209103534        3.9723295260
  H        45.9001821821       30.3194838361        5.3003338095
  H        43.6195040229       27.3646179689        3.1623091863
  H        42.5374802539       29.1795790513        1.8238121199
  H        44.1898201146       29.4187243884        6.7730987250
  H        14.8367451787        8.5365131677        3.3669695450
  H        44.8901826280       32.2306130626       11.9154795887
  H        46.0085015562       30.4074312677       10.6336028701
  H        43.7632859182       27.4820551749       12.8476462519
  H        42.6509580651       29.3180265439       14.1280397878
  H        44.2430817231       29.4585005529        9.2119384741
  H        35.0830540670       26.6182416603       12.6336346973
  H        36.6078678604       35.1351339844        0.1896948981
  H        16.1405833029        3.0094852468       11.9031521373
  H        14.9672953323        4.8499986031       10.6868786708
  H        17.3902358966        7.7459895970       12.7455320150
  H        18.5408477718        5.8950605761       13.9740063981
  H        16.7527012843        5.7481712118        9.2128198359
  H        36.2782325084       34.4836965286       14.2682537219
  H        36.3869537377       34.2069915797        1.5042671490
  H        40.5785758116       33.2059925172       13.1436718441
  H        17.4739910543        1.9486192304       15.9717114340
  H        28.7851505287       19.0200196947        4.4165981752
  H        29.7094631030       19.9126133677       11.6736088588
  H        31.1900765355       15.4806984365        4.4417446628
  H        28.2503360608       17.4417218753        7.0079057987
  H        31.6581727139       20.0467011041        9.6915725608
  H        29.0593019871       16.7028338537        9.6514262165
  H        18.9052397944        0.8516601941        4.3696728416
  H        40.5254232301       35.2298602074       11.9459851587
  H        42.3260841776       34.4209912555       11.5831522120
  H        22.0982137433        0.6984258811        4.3475271800
  H        11.5967858139       18.7130270639        4.3876804319
  H        52.2638500723       18.4310923899       11.6694730777
  H        49.2551948062       16.4775596980       11.5779775347
  H        10.1506412728       15.7984836460        4.2971621224
  H        50.8497113217       17.6925564114       11.9492308589
  H        10.0459108323       17.3948813708        4.0569338079
  H        20.2919933374        0.0041176236        4.0391374203
  H        39.1822420895       36.1246674569       11.6807471920
  H        32.3456755293       17.8406961936        6.9589287749
 Ni        30.7757165261       17.9138375693       11.0713008580
 Ni        30.5161215505       16.0274421517        7.7468772438
 Ni        30.0975063651       18.8424816485        7.9944223199
 Ni        30.1012503866       17.2781389123        5.3285488212
  O        10.6476959500       14.3654599430       13.4796909361
  O        12.6102397979       14.6526411224       14.5789756879
  O        49.1475416487       16.8458546965       15.9845566630
  O        50.3495529585       20.9376849265       13.6430187673
  O        48.3482721744       20.5936767744       14.6605128697
  O        11.0484840855       17.0539294879       14.4960483402
  O        50.3183669902       20.8831221556        2.4127195992
  O        48.3460313950       20.5860365250        1.3313640170
  O        49.5429785493       18.2488809009        2.0737373355
  O        12.3595802444       18.6227263743        0.0040265082
  O        48.6930016041       14.1484496034       14.7462629790
  O         8.2096353850       14.2103255860        1.3277481976
  O        10.7343574121       14.5068804946        2.6697194619
  O        12.5712168321       14.5811562190        1.3351308504
  O        22.8450449438        2.0442074446       13.4816940433
  O        21.6060132584        3.5927339443       14.5839937778
  O        42.0592247228       34.1367620438       15.9706957300
  O        37.9808737813       33.1397157149       13.5675875192
  O        39.2170243325       31.5764807412       14.6606284439
  O        20.3091598223        1.0404996030       14.4970480319
  O        38.0252210029       33.1885586326        2.4212082197
  O        39.2151669142       31.5835394860        1.3325734419
  O        40.6520833990       33.7716534691        2.0632075572
  O        18.2579607486        1.3763679361        0.0032457567
  O        44.6227933436       35.1002685721       14.7516613005
  O        24.2060332594       -0.0014001435        1.3263516686
  O        22.7532974929        2.0568011854        2.5884191804
  O        21.6252105973        3.5962718437        1.3484489552
  O        27.4557701140       18.6945237110       13.4957495616
  O        26.6997683528       16.9085047438       14.6737018249
  O        30.6291535067       19.3538437016        0.0889251131
  O        33.5435868233       16.3338113461       13.6516123290
  O        34.2710360617       18.1860806871       14.7391593864
  O        29.5663211568       17.0714700679       14.5762651299
  O        33.6229815146       16.3321461716        2.4141132582
  O        34.3005595277       18.2548386100        1.4107634867
  O        31.6504673794       18.3165585158        2.1716824759
  O        30.3227438990       15.1597896220        0.0798073745
  O        28.5506710304       21.0348479243       14.9060189865
  O        28.5113047645       20.9499134097        1.4172555845
  O        27.4971764396       18.6087587535        2.7441749664
  O        26.6930877380       16.9307097481        1.4268180684
  O        13.1483647254       18.6926621609        2.5918563893
  O        13.9175989233       16.9154135313        1.4079684977
  O        50.5963091948       19.3506188778        0.0262505740
  O        47.6822667857       16.3275638657        2.4228013241
  O        46.9517566716       18.1761963584        1.3294182180
  O        11.0655956215       17.0182100194        1.4958781488
  O        47.6749658779       16.3356462893       13.6479133167
  O        46.9261885570       18.2359416417       14.6591243524
  O        49.5682331111       18.3181179482       13.9767934583
  O        10.3178179829       15.0994718855        0.0026819761
  O        52.6706758463       21.0280327867        1.2467748679
  O        12.1468253601       20.8904834985       14.6676554058
  O        13.1094703711       18.6060558071       13.3264702231
  O        13.9222159289       16.9347722503       14.6470126729
  O        29.9995315650       14.4344959029        2.6677239633
  O        28.0774752259       14.6595739541        1.4875688217
  O        32.1383726017       16.8632194640        0.0822897623
  O        30.9459471552       20.9461323076        2.4282183126
  O        32.9147267750       20.6560358115        1.3327158372
  O        29.5653825359       17.0768854745        1.5799628128
  O        30.8688548144       20.9535371875       13.6632185490
  O        32.8757418711       20.5874493932       14.6630323171
  O        31.6494453795       18.3046175862       13.9933827091
  O        28.2297362010       18.6732767618        0.0947708626
  O        32.4960071556       14.2127307581        1.3333684795
  O        32.3991976793       14.2187436326       14.8127606123
  O        29.8765008102       14.5069380591       13.4081070641
  O        28.0426036414       14.5863780648       14.7434800689
  O        17.8899004820        1.9650978401        2.6685014573
  O        18.9559894605        3.5269789614        1.4138770049
  O        39.1671028186       34.1411437890        0.0039431847
  O        43.2724749020       33.0478807155        2.3302145545
  O        41.9756651159       31.5091053112        1.2602491451
  O        20.3215059346        1.0382889768        1.4832565384
  O        43.2760277933       33.1822085387       13.5693218893
  O        42.0053538180       31.5844242085       14.5790077922
  O        40.5777333471       33.7763681937       13.9273790309
  O        22.3686553313        1.3850395524        0.0022348559
  O        36.6740222279       35.0999253564        1.2407265615
  O        16.4458287739        0.0651890850       14.6629661444
  O        17.9364564651        2.0433675454       13.3215306333
  O        18.9187537701        3.5934985509       14.6605232194
  O        29.6994254808       19.0613449582       12.1472321991
  O        29.7293128087       18.9836591607        4.1559206727
  O        31.1872375279       16.3376176553       12.0869147431
  O        31.3452734395       16.3403274144        3.9982924213
  O        29.9530086729       16.9957337489        9.4032955521
  O        29.9499776532       15.5384270258        6.1717141092
  O        31.3834205501       17.7148712355        6.9863189693
  O        30.9226596350       19.4172707880        9.6693760706
  O        28.7745059907       18.1832462289        6.6611992952
  O        39.4557698709       35.2442601177       11.9966228525
  O        19.2009408523        0.0040332112        3.9933336786
  O        41.9699605214       35.1729975452       12.0813191703
  O        21.7013205555       -0.0693814087        3.9026241482
  O        51.3651386813       18.6143581025       12.0003014825
  O        10.7508952275       18.7474772251        3.9102590369
  O        50.0791513846       16.4131055854       12.0859341587
  O         9.5242948967       16.4832814383        3.9964669798
 Zr         9.2968582307       16.0525169291       14.1760411512
 Zr        49.8345890641       16.0075915034        1.7521557043
 Zr        22.0729068661        0.0315193373       14.1808343733
 Zr        42.4623218954       35.1522958936        1.7958576848
 Zr        29.5514453574       19.1012355194       14.3117285640
 Zr        29.5674237800       19.1584718558        1.9116091208
 Zr        11.0384109211       19.0526347590        1.8335436980
 Zr        11.0440034429       19.1535967257       14.2467792094
 Zr        31.3486860179       16.0919136298        1.8887106000
 Zr        31.3930684654       16.0310657567       14.2878227383
 Zr        18.6068705210        0.0031068713        1.7810601087
 Zr        18.5060723283       -0.0048275986       14.2108522303
 Zr        12.2948560235       16.3169919016       15.9889601127
 Zr        48.6174528987       18.8330319772        0.0148434859
 Zr        20.3156407449        2.4762533438       15.9849407497
 Zr        40.6341866771       32.6922970768       15.9688663575
 Zr        28.3305851985       16.3409214936        0.0864116106
 Zr        32.6115000054       18.8443089597        0.0749939224
  O        30.2503724247       20.4378656127        6.5022431482
  H        31.1185218691       20.8657377429        6.4216975307
  H        30.1083597909       19.9759582758        5.6179084022
  H        30.6051770992       15.6091302558       11.8000502068
