     569
 i =      193, E =     -4760.4093790550
  C        11.8587940531       14.0535045636       13.7364394631
  C        12.4562988193       12.8906120490       13.0181428395
  C        11.7045153895       12.1714476552       12.0767278117
  C        12.2809102178       11.1092473118       11.3843980225
  C        13.6215924683       10.7397073629       11.6119306014
  C        14.3548975283       11.4435484836       12.5850920033
  C        13.7819773625       12.5085214244       13.2765750891
  C        14.2611184996        9.6490418386       10.8385337416
  C        14.2563129048        9.6569008970        9.4168391487
  C        13.7430351739       10.7589860784        8.6629531137
  C        49.1269270662       21.2331880003       13.8745743448
  C        48.5502004443       22.4012054183       13.1475126648
  C        49.3002137354       23.0684710979       12.1664779676
  C        48.7333028213       24.1076393047       11.4332894033
  C        47.4028071285       24.5093579683       11.6620001775
  C        46.6718899701       23.8605665817       12.6755865235
  C        47.2343164084       22.8156265528       13.4049069866
  C        46.7725422192       25.5870501245       10.8647348594
  C        46.7613372520       25.5573426430        9.4429758377
  C        47.2612393516       24.4422261842        8.6994920551
  C        14.8603147511        8.5706081715        8.7035653068
  C        14.8920344700        8.5971728843       11.5151718369
  C        49.1132737533       21.2034041414        2.1504242733
  C        48.5278953923       22.3648028684        2.8776431784
  C        49.2670739920       23.0253743963        3.8706764460
  C        48.6907739560       24.0599459659        4.6021549104
  C        47.3604234919       24.4568508408        4.3638251915
  C        46.6400718853       23.8121043199        3.3401567156
  C        47.2135976588       22.7761805221        2.6083713124
  C        46.7219660686       25.5318309456        5.1548399058
  C        46.7335693256       25.5281384242        6.5765473002
  C        47.2489207726       24.4288903436        7.3329390703
  C        40.6319950369       17.1348973459        7.3350827320
  C        40.6572780132       17.1834236988        4.5263008678
  C        11.8830085841       14.0865689935        2.2906796191
  C        12.4724219444       12.9109089086        2.9949953773
  C        11.7148139837       12.1774105662        3.9208015446
  C        12.2814767724       11.0949785452        4.5891842231
  C        13.6204431240       10.7215862296        4.3576457152
  C        14.3585510948       11.4375089047        3.3972167950
  C        13.7930510562       12.5186462680        2.7245369622
  C        14.2540446173        9.6247948064        5.1279988232
  C        14.2525721716        9.6446374049        6.5498327067
  C        13.7425394969       10.7535089595        7.2969102833
  C        22.5118012477        3.2457591393       13.7464311841
  C        23.2243095882        4.3512248127       13.0443510594
  C        24.2197664098        4.0715065150       12.0962392142
  C        24.8455426253        5.1108562247       11.4124877166
  C        24.4918555900        6.4531998766       11.6554070533
  C        23.5242260892        6.7243192468       12.6402788844
  C        22.8940716130        5.6868375607       13.3228669001
  C        25.0979942618        7.5597684528       10.8790936628
  C        25.0765666874        7.5506948276        9.4570126681
  C        24.3796317638        6.5492357871        8.7089312551
  C        38.3024115685       31.9312267906       13.8457346270
  C        37.5707586543       30.8420520331       13.1384769418
  C        36.6068090710       31.1468262588       12.1655986490
  C        35.9876897642       30.1269018111       11.4490153250
  C        36.3190400560       28.7782603283       11.6838520767
  C        37.2532846704       28.4806602325       12.6934240546
  C        37.8759922547       29.4994385114       13.4093580304
  C        35.7147557200       27.6888487028       10.8862062126
  C        35.7390423871       27.7101065597        9.4649685145
  C        36.4458300911       28.7128715887        8.7290763207
  C        25.7006050525        8.6207442498        8.7375700587
  C        25.6913186101        8.6369350080       11.5501510175
  C        38.3291708647       31.9641599962        2.1615700165
  C        37.6043850814       30.8953987160        2.9064477935
  C        36.6771416361       31.2132875635        3.9105760067
  C        36.0600817358       30.2012428072        4.6428035503
  C        36.3559320166       28.8465350423        4.3931213545
  C        37.2622191946       28.5384501497        3.3601779717
  C        37.8818673190       29.5472711211        2.6295830652
  C        35.7378504472       27.7532104531        5.1768567344
  C        35.7502821874       27.7435301397        6.5986480992
  C        36.4514851518       28.7285617086        7.3626323246
  C        46.1355353542       26.6207722839        7.2866748446
  C        46.0881721684       26.5802802495        4.4787764393
  C        22.4638434465        3.2563092066        2.2618755267
  C        23.1641577759        4.3636284461        2.9809268185
  C        24.1701774271        4.0751416060        3.9170473091
  C        24.8043095186        5.1035959652        4.6100961394
  C        24.4528419208        6.4505137988        4.3901505304
  C        23.4703821896        6.7322521298        3.4219594323
  C        22.8317104038        5.7041281151        2.7291342508
  C        25.0858341206        7.5475745830        5.1648469645
  C        25.0711475052        7.5438352616        6.5875530919
  C        24.3750964494        6.5473931101        7.3421838250
  C        26.6245793056       17.8614186806       13.7815170681
  C        25.3164704043       17.9028338417       13.0563762151
  C        25.0611105689       18.8880070654       12.0894076649
  C        23.8480718315       18.9043859506       11.4030838297
  C        22.8532229427       17.9389549551       11.6611893533
  C        23.1055352012       16.9765669075       12.6570968754
  C        24.3204773791       16.9546350513       13.3409863230
  C        21.5794400822       17.9204579079       10.8973429598
  C        21.5785712729       17.8874853796        9.4749714407
  C        22.7829434837       17.7513818753        8.7147702928
  C        34.4243226200       17.2200717150       13.9128520143
  C        35.7179934032       17.1488818797       13.1726195648
  C        35.9093190747       16.1879409185       12.1676866792
  C        37.0918092819       16.1651296353       11.4326230196
  C        38.1141512681       17.1015846184       11.6824463923
  C        37.9255058678       18.0401130451       12.7152497869
  C        36.7414717721       18.0683607333       13.4478036956
  C        39.3693146051       17.1074024346       10.8968933292
  C        39.3685906510       17.1335220998        9.4751432419
  C        38.1638923491       17.2622314179        8.7145695894
  C        20.3319324292       17.9058190278        8.7663474180
  C        20.3544187990       17.9305250382       11.5794417420
  C        34.4802073760       17.2498785975        2.1834966400
  C        35.7832145740       17.1815890943        2.9078111374
  C        35.9989399123       16.1952577731        3.8817981620
  C        37.1833358318       16.1792078437        4.6127578458
  C        38.1797626981       17.1490272779        4.3890836747
  C        37.9702416974       18.1110938996        3.3837251663
  C        36.7835542765       18.1319952858        2.6553583134
  C        39.4247121046       17.1664777427        5.1875852979
  C        39.3972771920       17.1653468192        6.6085091803
  C        38.1775438359       17.2754091029        7.3479988787
  C        35.1145228748       26.6663748343        7.3009388508
  C        35.1370224545       26.6900500417        4.4921372140
  C        26.5867627134       17.7946030897        2.3631823402
  C        25.2688605792       17.8394005948        3.0629048131
  C        25.0001731766       18.8418064476        4.0066742571
  C        23.7768362391       18.8683530204        4.6701852564
  C        22.7941802740       17.8908614975        4.4153491742
  C        23.0573481539       16.9135662699        3.4386733198
  C        24.2804901628       16.8866029338        2.7714288111
  C        21.5286072081       17.8712122787        5.1850913373
  C        21.5522827819       17.8592700965        6.6066231340
  C        22.7701742115       17.7367717281        7.3485761082
  C        14.0468899246       17.8271935236        2.2951440387
  C        15.3506987875       17.8791474597        3.0221816765
  C        15.6103690622       18.8785773897        3.9730014357
  C        16.8192609912       18.8932744770        4.6665042777
  C        17.8030708666       17.9112219136        4.4318133250
  C        17.5480542358       16.9360518829        3.4490003061
  C        16.3387688024       16.9167560543        2.7571155445
  C        19.0723772353       17.8879557258        5.2007113886
  C        19.0712553119       17.8840492623        6.6232745639
  C        17.8642555297       17.7893649695        7.3850886426
  C        46.8065308831       17.2213048271        2.1662640380
  C        45.5198786760       17.1672140221        2.9178518609
  C        45.3137328892       16.1939815667        3.9076886248
  C        44.1348996591       16.1839202107        4.6485423677
  C        43.1327679015       17.1472702640        4.4210388825
  C        43.3368865659       18.1011534982        3.4057280251
  C        44.5163019398       18.1151384145        2.6660379087
  C        41.8793272296       17.1619644640        5.2085541183
  C        41.8809312546       17.1524101623        6.6303129986
  C        43.0877500961       17.2407422935        7.3929139791
  C        20.3180753369       17.8911690725        7.3315463162
  C        20.2966583943       17.8652863658        4.5182793108
  C        46.7838972229       17.2288810709       13.8870954926
  C        45.4775565070       17.1169000092       13.1781557496
  C        45.2606302267       16.1191481655       12.2158058218
  C        44.0709759755       16.0889716887       11.4923717914
  C        43.0687222110       17.0529151394       11.7153265126
  C        43.2747665621       18.0181276348       12.7185944035
  C        44.4659451042       18.0552860223       13.4364083727
  C        41.8238790079       17.0773433840       10.9161401519
  C        41.8527737047       17.1067215884        9.4955722020
  C        43.0743196999       17.2168624846        8.7591127197
  C        46.1533642038       26.6372490390        8.7212288231
  C        46.1626936196       26.6562265616       11.5308642945
  C        14.0458788334       17.8316116338       13.7038216175
  C        15.3674383058       17.9049455213       13.0144457948
  C        15.6419807375       18.9176255715       12.0831975583
  C        16.8716882473       18.9527103376       11.4294652871
  C        17.8545733630       17.9743496324       11.6813021718
  C        17.5870778051       16.9912100367       12.6512148869
  C        16.3594234895       16.9554403046       13.3082961546
  C        19.1218535058       17.9448585597       10.9124671258
  C        19.0970313229       17.9125647693        9.4911835252
  C        17.8768817387       17.8020840512        8.7510622428
  C        28.8127880783       14.0872599779        2.3686897343
  C        28.2095869751       12.9145326668        3.0638196146
  C        28.9227141468       12.2087894914        4.0434901572
  C        28.3293795610       11.1318878414        4.6976141338
  C        27.0076748586       10.7407886352        4.4013833196
  C        26.3165608475       11.4305552298        3.3887576926
  C        26.9083155524       12.5051353534        2.7304586003
  C        26.3382479197        9.6617608260        5.1637602577
  C        26.3133251996        9.6925248586        6.5849553634
  C        26.8047102654       10.8106757271        7.3309012237
  C        32.1537344243       21.2718265436        2.1482101387
  C        32.7358199247       22.4459123728        2.8650564751
  C        31.9841253957       23.1186750376        3.8401540864
  C        32.5507942721       24.1593889315        4.5702934904
  C        33.8844398421       24.5523556340        4.3462104011
  C        34.6173885143       23.8991665496        3.3376955080
  C        34.0527186415       22.8548425624        2.6087427087
  C        34.5154271951       25.6233130397        5.1498544084
  C        34.5115713416       25.5900889355        6.5711885809
  C        33.9971820073       24.4761849061        7.3072289404
  C        25.7027999819        8.6139570913        7.3028078858
  C        25.7069518082        8.6071332632        4.4901434541
  C        32.1021956715       21.2290624855       13.8788782073
  C        32.6904669784       22.3822731342       13.1353690810
  C        31.9482600471       23.0545600149       12.1518707028
  C        32.5266208122       24.0847552949       11.4141361242
  C        33.8608695753       24.4739985335       11.6434160872
  C        34.5860075467       23.8162426085       12.6553929730
  C        34.0125109328       22.7797989145       13.3874112144
  C        34.4975126577       25.5575705914       10.8601081892
  C        34.5014261316       25.5568862041        9.4383044979
  C        33.9919138635       24.4606457482        8.6737113793
  C        40.6171769124       17.1145214534        8.7692955358
  C        40.5917054161       17.0952302884       11.5785298354
  C        28.7241240274       14.0981370429       13.7770093551
  C        28.1192264611       12.9465244131       13.0448153842
  C        28.8560016446       12.2416213708       12.0804202454
  C        28.2763812698       11.1786068849       11.3919149870
  C        26.9438177168       10.7931278823       11.6422310008
  C        26.2251804161       11.4838720693       12.6360281663
  C        26.8031544375       12.5468878661       13.3270019734
  C        26.3037042889        9.6993594928       10.8727011169
  C        26.2983629453        9.7110530770        9.4508348387
  C        26.7962446614       10.8195727919        8.6965391778
  C        18.1355113136        3.1812075426        2.3223120215
  C        17.4063421690        4.2784408980        3.0209243906
  C        16.3903000321        4.0001607807        3.9481268538
  C        15.7426425599        5.0401886917        4.6115927084
  C        16.0949440713        6.3838696460        4.3722152578
  C        17.0847067383        6.6533254971        3.4088280456
  C        17.7337519173        5.6159364775        2.7437995411
  C        15.4705671362        7.4915426461        5.1352571612
  C        15.4856697572        7.4907137044        6.5569669111
  C        16.1872441362        6.4970981158        7.3101190834
  C        42.9459960535       31.8596491594        2.0780340256
  C        43.6464584543       30.7719643888        2.8219541403
  C        44.5917708163       31.0933290430        3.8082157040
  C        45.1975209632       30.0878013776        4.5558866988
  C        44.8713776803       28.7346998221        4.3408278647
  C        43.9458750227       28.4203241559        3.3273224854
  C        43.3370235400       29.4254439613        2.5792819668
  C        45.4888803499       27.6553715625        5.1440371093
  C        45.4929461352       27.6809593757        6.5657344239
  C        44.8058491040       28.6889973325        7.3123629364
  C        14.8565977695        8.5631249382        7.2693503063
  C        14.8753980364        8.5633718041        4.4566706533
  C        42.9465267088       31.9617585894       13.8039036354
  C        43.6918773422       30.8856045824       13.0904894498
  C        44.6561246207       31.1915436781       12.1178629546
  C        45.2777190171       30.1719680253       11.4001701402
  C        44.9543241824       28.8216111418       11.6381035549
  C        44.0213069256       28.5239283926       12.6493199613
  C        43.3929962420       29.5406791789       13.3614825990
  C        45.5633201018       27.7242045061       10.8528324919
  C        45.5334151547       27.7174158637        9.4315315930
  C        44.8271310156       28.7076537803        8.6785481700
  C        35.1094296783       26.6492401223        8.7355178563
  C        35.1143936620       26.6107116007       11.5454958165
  C        18.1487378438        3.2471786904       13.7014709221
  C        17.4302593804        4.3439757514       12.9921523595
  C        16.4148566742        4.0527229939       12.0687772771
  C        15.7665718686        5.0833682922       11.3934119757
  C        16.1214349563        6.4285829036       11.6159661725
  C        17.1130708939        6.7119380904       12.5729627689
  C        17.7607467359        5.6830210607       13.2527179231
  C        15.4908483663        7.5242505905       10.8435592285
  C        15.4966409731        7.5075600373        9.4224295941
  C        16.1934489567        6.5058930322        8.6757243651
  H        10.6723009711       12.4653834576       11.8998986223
  H        11.6945736829       10.5505722427       10.6580468908
  H        15.3920547092       11.1692423184       12.7665460757
  H        14.3515931600       13.0720014183       14.0116956703
  H        13.3759842734       11.6310762370        9.1962931997
  H        50.3228964042       22.7483677476       11.9816930409
  H        49.3197877483       24.6228648081       10.6756828138
  H        45.6424486856       24.1614538114       12.8588471871
  H        46.6633494668       22.2903985838       14.1670428461
  H        47.6298143831       23.5758722598        9.2411915650
  H        14.8725761565        8.5885124741       12.6034827453
  H        50.2870897613       22.7024378737        4.0656175325
  H        49.2691715118       24.5753160580        5.3657138564
  H        45.6107464444       24.1095325159        3.1509632421
  H        46.6528595498       22.2541550832        1.8366539456
  H        47.6077358730       23.5517853346        6.8020416741
  H        40.6659625085       17.1568589428        3.4383632319
  H        48.6870852340       14.0949420890       15.7948540134
  H        10.6812169619       12.4661829965        4.0979551144
  H        11.6896518967       10.5242973811        5.3016221032
  H        15.3941521433       11.1600251370        3.2116159809
  H        14.3655252211       13.0883275423        1.9963561265
  H        13.3757084901       11.6221299323        6.7582881811
  H        47.9301695843       14.2181748505        1.7160548474
  H        47.7801253572       14.3738418830       14.4901236008
  H        49.0846282784       18.5528350599        2.8727475105
  H        10.4161714091       14.1343181889        0.0038419528
  H        24.4814236294        3.0330468233       11.9056505486
  H        25.6179981026        4.8926261308       10.6782495849
  H        23.2429415923        7.7571566020       12.8351350238
  H        22.1253522651        5.8880784959       14.0649984759
  H        23.8169476864        5.7922777760        9.2474376484
  H        36.3681672573       32.1901666236       11.9733386462
  H        35.2396705216       30.3653360220       10.6961133429
  H        37.5160239273       27.4415886960       12.8808365645
  H        38.6232821245       29.2793169715       14.1680024787
  H        37.0158652366       29.4582334672        9.2759820363
  H        25.7231443424        8.6213923826       12.6381249320
  H        36.4610236595       32.2596242042        4.1139871410
  H        35.3352700251       30.4526909080        5.4139379329
  H        37.5023043702       27.4959328705        3.1620932691
  H        38.6038176814       29.3152533007        1.8503587350
  H        37.0272669128       29.4853749635        6.8376601585
  H        46.1097731748       26.5877601253        3.3907448263
  H        44.6683840631       35.1162989755       15.8088982669
  H        24.4457506031        3.0361996916        4.0833336651
  H        25.5873036687        4.8724063813        5.3291847761
  H        23.1874953238        7.7675739720        3.2428077504
  H        22.0574070864        5.9196313513        1.9964341371
  H        23.8084523927        5.7893270230        6.8092645232
  H        44.9541227888       34.3905545383        1.7003310716
  H        44.9019412808       34.2069518324       14.4854870396
  H        40.6666364714       33.2097577726        2.8584597609
  H        23.1506203850        1.9583606476        0.0096671776
  H        25.8267961865       19.6348991621       11.8918227594
  H        23.6552983529       19.6748493348       10.6594997077
  H        22.3499749928       16.2219444515       12.8662620731
  H        24.5247981086       16.1979940349       14.0950018091
  H        23.7226297078       17.6280898986        9.2452271538
  H        35.1139914601       15.4724421224       11.9713728025
  H        37.2394130143       15.4121238958       10.6615226538
  H        38.7072284749       18.7704231280       12.9138090713
  H        36.5795774168       18.8078305763       14.2287314205
  H        37.2232074611       17.3807888152        9.2444832299
  H        20.3611459983       17.9786909537       12.6669884121
  H        35.2184474508       15.4593382904        4.0610923842
  H        37.3510412678       15.4110886987        5.3646084529
  H        38.7340181144       18.8656620495        3.2071508813
  H        36.5990061471       18.8914536956        1.8991751267
  H        37.2474464168       17.4020357822        6.8014974004
  H        35.1081528470       26.7190164279        3.4045864693
  H        28.5077868221       21.0763974849       15.9787400727
  H        25.7622944764       19.5925777551        4.2025663040
  H        23.5674677660       19.6500593820        5.3971888381
  H        22.3073294956       16.1516352060        3.2364677867
  H        24.5001035344       16.1204455694        2.0317260255
  H        23.7000768811       17.6016096408        6.8042821429
  H        28.9936983972       21.7155322376        1.7774503380
  H        29.1620332782       21.7436890970       14.6280790469
  H        32.1013807989       18.5599954699        2.9880820102
  H        27.3959794419       19.0656330272        0.0859843017
  H        14.8545524235       19.6397715308        4.1533102435
  H        17.0165988651       19.6747974419        5.3971332743
  H        18.2967619972       16.1698630643        3.2582987883
  H        16.1308535766       16.1503817006        2.0142279387
  H        16.9213234746       17.6745614932        6.8583843237
  H        46.0940714656       15.4585773536        4.0889937781
  H        43.9746937560       15.4206156877        5.4067931210
  H        42.5713037663       18.8531589529        3.2263589877
  H        44.6905238363       18.8654704880        1.8984328660
  H        44.0308034064       17.3595432417        6.8670165244
  H        20.2908936256       17.8975934091        3.4302077078
  H        46.0406935060       15.3831431997       12.0349516138
  H        43.9061871791       15.3162262342       10.7446324087
  H        42.5051977663       18.7661085335       12.8975986899
  H        44.6472919429       18.8206951709       14.1869668131
  H        44.0071040071       17.3162301896        9.3065832609
  H        46.1997790135       26.6828818516       12.6183002535
  H        52.7412833768       21.0626533982        0.1998235926
  H        14.8817845470       19.6708352930       11.8880971839
  H        17.0835114431       19.7405913239       10.7098212669
  H        18.3373907220       16.2296321502       12.8535387273
  H        16.1375582958       16.1831951984       14.0407999483
  H        16.9434193109       17.6968602760        9.2957169846
  H        52.3227463129       21.6733653900       14.2890476869
  H        52.0133318192       21.7020730431        1.5008020813
  H        49.0672016485       18.6074311695       13.1990909015
  H        13.2478818859       19.0158590075       15.9725895513
  H        29.9348478213       12.5244862645        4.2854580764
  H        28.8853424116       10.5831873795        5.4546004208
  H        25.2947761227       11.1406513922        3.1526588142
  H        26.3711865953       13.0585418892        1.9641935711
  H        27.1638748970       11.6825660513        6.7921055184
  H        30.9604385778       22.7991783738        4.0208080211
  H        31.9635550239       24.6821235418        5.3221784653
  H        35.6494142550       24.1944210306        3.1596705173
  H        34.6234249499       22.3231677725        1.8508401067
  H        33.6307273800       23.6140600452        6.7574371261
  H        25.7440421451        8.5843951832        3.4024161172
  H        30.9184717536       22.7535904974       11.9741254060
  H        31.9441503718       24.6080275692       10.6589020830
  H        35.6185875553       24.1066769249       12.8380111054
  H        34.5769451195       22.2495955168       14.1510317925
  H        33.6213799946       23.5861497765        9.2007580963
  H        40.5827687135       17.0476618164       12.6658060697
  H        32.5168407768       14.1501406384        0.2599557287
  H        29.8869038621       12.5330427369       11.8921691322
  H        28.8554345092       10.6282105417       10.6535306391
  H        25.1944666075       11.1988686975       12.8369765930
  H        26.2449910315       13.0950377994       14.0823672335
  H        27.1477632411       11.6983998270        9.2288558499
  H        33.2886738466       14.1939346072       14.4193473461
  H        33.4128473514       14.4038229855        1.6057888420
  H        32.1475011109       18.5701765790       13.2013248964
  H        30.2300620888       14.1938616443        0.0662209522
  H        16.1179368615        2.9636967933        4.1342851372
  H        14.9529499401        4.8209235005        5.3270178798
  H        17.3675752158        7.6861462807        3.2160578280
  H        18.5161591585        5.8185744053        2.0163436287
  H        16.7539611791        5.7398871283        6.7766044277
  H        44.8278644233       32.1404345027        3.9825473469
  H        45.9372497665       30.3416245633        5.3119446575
  H        43.6835397338       27.3782089387        3.1569332260
  H        42.6007073828       29.1900956751        1.8143329263
  H        44.2306391603       29.4368691983        6.7740512766
  H        14.8518934703        8.5467804682        3.3684433942
  H        44.8994055083       32.2342473070       11.9261825967
  H        46.0244095852       30.4132703636       10.6467406603
  H        43.7648411564       27.4841519467       12.8412937197
  H        42.6469477678       29.3178754398       14.1203679056
  H        44.2687327535       29.4706289291        9.2131185212
  H        35.0794328730       26.6177114703       12.6332667852
  H        36.6052025708       35.1344148878        0.1855469072
  H        16.1436090016        3.0131688406       11.8992065920
  H        14.9741103635        4.8565995890       10.6834586563
  H        17.3968486824        7.7473710582       12.7496246434
  H        18.5438825709        5.8934855980       13.9771993343
  H        16.7650196330        5.7557463101        9.2141464310
  H        36.2789578335       34.4826412409       14.2679898495
  H        36.3813810590       34.2091393056        1.5042619250
  H        40.5809443610       33.2033400759       13.1482901163
  H        17.4710151511        1.9481373327       15.9690212748
  H        28.9877466752       19.2002788084        4.4830465393
  H        29.8017182053       19.8303392350       11.6121302633
  H        31.2556373143       15.4905334791        4.4558867665
  H        28.0907726555       17.6296581189        6.6923489561
  H        31.5702050369       19.9143174766        9.4439181562
  H        29.0487635707       16.5160914840        9.3570805926
  H        18.8535892164        0.8690172522        4.3404688521
  H        40.5279655704       35.2289719571       11.9468194710
  H        42.3253639059       34.4202454575       11.5847377933
  H        22.0875562640        0.6921690598        4.3569332036
  H        11.5970580759       18.7129383127        4.3875815090
  H        52.2650718840       18.4310188597       11.6723229190
  H        49.2548998699       16.4770554205       11.5793561815
  H        10.1501745337       15.7980712377        4.2977666540
  H        50.8501374741       17.6925873805       11.9491023667
  H        10.0461874734       17.3943936339        4.0570514286
  H        20.2147624000        0.0022335264        4.0470840198
  H        39.1838062084       36.1244357290       11.6811939986
  H        32.3117987561       18.1506014142        6.8319514695
 Ni        30.6885707108       17.8215409361       10.7503572101
 Ni        30.6881959338       16.0539232417        7.5780690661
 Ni        29.9275126696       18.6983879747        7.9943642367
 Ni        30.1836244112       17.3275995082        5.2446238791
  O        10.6499714966       14.3651672735       13.4807163461
  O        12.6131680499       14.6575036350       14.5787977817
  O        49.1479717648       16.8458872189       15.9845525715
  O        50.3503030221       20.9358668826       13.6429343507
  O        48.3485547984       20.5933565940       14.6607963772
  O        11.0517114674       17.0538978133       14.4955920560
  O        50.3210079125       20.8816436518        2.4119730232
  O        48.3467501878       20.5867763793        1.3322158608
  O        49.5437929834       18.2484078875        2.0733235136
  O        12.3591457453       18.6246587132        0.0048296958
  O        48.6932753075       14.1485649678       14.7461810766
  O         8.2098502244       14.2104286131        1.3276842459
  O        10.7353160739       14.5067921670        2.6694366725
  O        12.5717731850       14.5828062942        1.3336192400
  O        22.8450087303        2.0442251010       13.4818916060
  O        21.6059277256        3.5927668933       14.5842323429
  O        42.0584816964       34.1377277044       15.9738518366
  O        37.9817780091       33.1390484349       13.5678160424
  O        39.2184019589       31.5765919743       14.6619254356
  O        20.3087022885        1.0401470073       14.4971793077
  O        38.0253130483       33.1877289055        2.4196825044
  O        39.2188700270       31.5837763148        1.3321969538
  O        40.6524611095       33.7696182733        2.0652869070
  O        18.2554757637        1.3766709446        0.0018804960
  O        44.6222026596       35.1006009242       14.7536860364
  O        24.2054691532       -0.0000082582        1.3258411817
  O        22.7532909847        2.0576768914        2.5889214433
  O        21.6250845040        3.5965752451        1.3488327142
  O        27.4976469819       18.7527022493       13.4945930017
  O        26.7677750215       16.9313430904       14.6506831420
  O        30.6634331716       19.4043262863        0.0719895416
  O        33.5448686293       16.3313689969       13.6492073444
  O        34.2764986078       18.1826758053       14.7383134501
  O        29.5739132776       17.0714742549       14.5718371352
  O        33.6270533627       16.3309715456        2.4111708638
  O        34.3040412652       18.2537885134        1.4109252408
  O        31.6567411257       18.3152941377        2.1600507105
  O        30.3252924563       15.1604253445        0.0759859144
  O        28.5544920024       21.0328414249       14.9013132279
  O        28.5107293847       20.9524974375        1.4174179950
  O        27.4915295611       18.6117285222        2.7352974454
  O        26.6944918296       16.9299084187        1.4184295071
  O        13.1497396190       18.6925534546        2.5927978023
  O        13.9192246848       16.9159918406        1.4098829683
  O        50.5963382034       19.3502337790        0.0255952536
  O        47.6829569829       16.3272950235        2.4225672282
  O        46.9520366966       18.1761222198        1.3294409206
  O        11.0698748718       17.0154743842        1.4947650830
  O        47.6757287862       16.3354850883       13.6482371769
  O        46.9265167607       18.2357938886       14.6592721625
  O        49.5687188042       18.3177262314       13.9771823111
  O        10.3186350329       15.1001496114        0.0022084320
  O        52.6707922851       21.0278520065        1.2469369314
  O        12.1468512074       20.8911982680       14.6681496698
  O        13.1084539975       18.6135492248       13.3204885757
  O        13.9570186634       16.9869911689       14.6605224826
  O        30.0029277877       14.4375310464        2.6693790107
  O        28.0796139272       14.6579043034        1.4890400633
  O        32.1374725716       16.8606986517        0.0774951164
  O        30.9522049606       20.9537717248        2.4215843175
  O        32.9202836675       20.6540230437        1.3311528727
  O        29.5706495779       17.0727948363        1.5791588775
  O        30.8709705865       20.9462324358       13.6563684325
  O        32.8771995160       20.5866729757       14.6593563417
  O        31.6801003949       18.2573148682       13.9910106832
  O        28.2852150512       18.6752999759        0.0878618080
  O        32.4967400223       14.2122081849        1.3313497350
  O        32.3988262903       14.2209904329       14.8085153744
  O        29.8787025663       14.5093169612       13.4055235192
  O        28.0443789291       14.5855461642       14.7426220685
  O        17.8892338766        1.9667335066        2.6679124191
  O        18.9563068084        3.5272054225        1.4130934215
  O        39.1686640762       34.1389615967        0.0022838013
  O        43.2802570566       33.0590068241        2.3368574014
  O        42.0345626908       31.5064609454        1.2467808255
  O        20.3180100180        1.0371260790        1.4849726841
  O        43.2760554008       33.1826509033       13.5697792842
  O        42.0052784889       31.5841569490       14.5778843691
  O        40.5791436237       33.7752654975       13.9309381076
  O        22.3675833109        1.3849629084        0.0030333440
  O        36.6727229372       35.0999806422        1.2382327097
  O        16.4456643269        0.0645152218       14.6632116999
  O        17.9365365778        2.0434615387       13.3212943520
  O        18.9191371784        3.5931774864       14.6608364938
  O        29.8336353812       18.9696109103       12.0687623795
  O        29.7899039373       18.9001671194        4.0145115143
  O        31.1769291938       16.3455638549       11.9900188251
  O        31.4248584449       16.3422729351        3.9991047866
  O        29.9113042816       16.9233516109        9.1612793252
  O        30.0328490858       15.5350702129        6.0799597492
  O        31.3844007817       17.8741302751        6.9100808311
  O        30.7121001739       19.4781478055        9.5654730956
  O        28.8110686178       18.2521395279        6.4984741299
  O        39.4567952453       35.2437841230       11.9968551630
  O        19.1413309825        0.0045129016        3.9956520062
  O        41.9696490393       35.1729818749       12.0821107828
  O        21.6912808896       -0.0692621531        3.9011354423
  O        51.3652078083       18.6142968665       12.0003031147
  O        10.7512671646       18.7471686254        3.9099893342
  O        50.0793051518       16.4127887018       12.0866282167
  O         9.5243848867       16.4830370891        3.9962977587
 Zr         9.2973839885       16.0527282572       14.1773116489
 Zr        49.8366119939       16.0066240062        1.7514268153
 Zr        22.0736769943        0.0309996864       14.1837001874
 Zr        42.4613207301       35.1544032544        1.8063866869
 Zr        29.5985286645       19.0980471090       14.2933257835
 Zr        29.5778109978       19.1650873985        1.8939672048
 Zr        11.0386899185       19.0517174875        1.8328653670
 Zr        11.0443945321       19.1547473882       14.2458540129
 Zr        31.3586000340       16.0970064593        1.8775815228
 Zr        31.3917357979       16.0335545031       14.2644251287
 Zr        18.6015866089       -0.0000808195        1.7681701874
 Zr        18.5070380141       -0.0064710896       14.2089126589
 Zr        12.3026521613       16.3234963867       15.9852097538
 Zr        48.6170625662       18.8331363409        0.0151312673
 Zr        20.3162373956        2.4749182446       15.9856365006
 Zr        40.6444056924       32.6882030512       15.9733184771
 Zr        28.3452740969       16.3430174992        0.0937428891
 Zr        32.6258105366       18.8454502080        0.0738972008
  H        30.6204631407       15.5743616998       11.7716949230
