     577
 i =      228, E =     -4796.1272537358
  C        11.8589440931       14.0535126578       13.7364973551
  C        12.4565740940       12.8909187406       13.0178490412
  C        11.7046094854       12.1713055616       12.0769201794
  C        12.2810031182       11.1090619347       11.3846655236
  C        13.6218512680       10.7399237596       11.6118403255
  C        14.3553741063       11.4441965207       12.5845048369
  C        13.7824452362       12.5092315237       13.2758874482
  C        14.2613128453        9.6491555336       10.8385235901
  C        14.2564031755        9.6569018736        9.4168344971
  C        13.7432488412       10.7590506249        8.6629647894
  C        49.1271180560       21.2330617032       13.8744694245
  C        48.5503984830       22.4012931153       13.1476231155
  C        49.3003522282       23.0684418785       12.1664698506
  C        48.7334519158       24.1076587928       11.4333176112
  C        47.4029768265       24.5094387740       11.6620202606
  C        46.6721968370       23.8608705000       12.6758553748
  C        47.2346051072       22.8159059135       13.4051642223
  C        46.7726204808       25.5871115949       10.8647951587
  C        46.7613898905       25.5573711358        9.4430329888
  C        47.2613904645       24.4422918320        8.6995622942
  C        14.8602404415        8.5705063906        8.7035854281
  C        14.8921329788        8.5972560416       11.5151828941
  C        49.1133404922       21.2032861865        2.1505243455
  C        48.5280256658       22.3649124254        2.8775641376
  C        49.2671353866       23.0251827530        3.8708423792
  C        48.6908537449       24.0597440700        4.6023710983
  C        47.3606154598       24.4569074499        4.3638777197
  C        46.6403470798       23.8123901524        3.3400024106
  C        47.2138419563       22.7765067522        2.6081360642
  C        46.7221529138       25.5318994235        5.1548788630
  C        46.7336186582       25.5281469546        6.5765945733
  C        47.2490341850       24.4289437706        7.3330099002
  C        40.6303702363       17.1167210187        7.3330101021
  C        40.6564863169       17.1728252053        4.5242000462
  C        11.8832337503       14.0866182005        2.2907210773
  C        12.4727194969       12.9111543900        2.9952419093
  C        11.7149443414       12.1772272131        3.9205718474
  C        12.2816384803       11.0948056783        4.5889364345
  C        13.6207663641       10.7217945413        4.3577260051
  C        14.3591118247       11.4382025896        3.3978595349
  C        13.7935735769       12.5193565160        2.7252213105
  C        14.2542352050        9.6248789050        5.1280324677
  C        14.2526758785        9.6446478942        6.5498604866
  C        13.7427613600       10.7535801352        7.2969236565
  C        22.5128776605        3.2460103155       13.7463894693
  C        23.2282160917        4.3506296632       13.0448062305
  C        24.2238043893        4.0686635890       12.0973521190
  C        24.8528761469        5.1062718011       11.4138135128
  C        24.5028979131        6.4497733090       11.6560453985
  C        23.5349113559        6.7232032908       12.6400270934
  C        22.9013142984        5.6873043471       13.3223265852
  C        25.1131144443        7.5542350542       10.8791510872
  C        25.0915658050        7.5447638768        9.4570731031
  C        24.3884442221        6.5467013486        8.7103101384
  C        38.3029527058       31.9315234957       13.8456081712
  C        37.5729344879       30.8419138859       13.1379203025
  C        36.6092142567       31.1453806535       12.1644894442
  C        35.9924733475       30.1244229839       11.4473115851
  C        36.3261453945       28.7765407176       11.6827620787
  C        37.2601008467       28.4802291252       12.6929039231
  C        37.8804576509       29.4999320786       13.4092103802
  C        35.7249906049       27.6853525191       10.8856559730
  C        35.7515094244       27.7047233599        9.4645869764
  C        36.4552223494       28.7088675954        8.7275539442
  C        25.7204861404        8.6115353136        8.7367030122
  C        25.7091791313        8.6306662137       11.5488811999
  C        38.3285709066       31.9636575257        2.1613443895
  C        37.6032742450       30.8939906533        2.9050876376
  C        36.6770266339       31.2102624606        3.9106990661
  C        36.0609963532       30.1970754216        4.6424792285
  C        36.3567073958       28.8425920575        4.3910668067
  C        37.2611809321       28.5362522003        3.3559511348
  C        37.8798629681       29.5461243332        2.6258162403
  C        35.7422915160       27.7477579576        5.1761841409
  C        35.7602038902       27.7369102548        6.5981039494
  C        36.4599941513       28.7238803799        7.3609998776
  C        46.1354826191       26.6207354668        7.2867141762
  C        46.0883768270       26.5803748132        4.4788258181
  C        22.4630123019        3.2559723329        2.2619544596
  C        23.1623197766        4.3630672844        2.9818894191
  C        24.1675735278        4.0738803114        3.9185208733
  C        24.8016263273        5.1019590871        4.6118847107
  C        24.4507003692        6.4489722134        4.3916712441
  C        23.4684330922        6.7313710034        3.4235290948
  C        22.8298095960        5.7035457605        2.7303276029
  C        25.0866797502        7.5447137421        5.1651294636
  C        25.0789357238        7.5390449905        6.5877974205
  C        24.3804537522        6.5452062249        7.3436662817
  C        26.6200544261       17.8609504366       13.7841099836
  C        25.3121727673       17.8980520913       13.0598944674
  C        25.0617589378       18.8750298196       12.0834076043
  C        23.8494600547       18.8894796848       11.3960921247
  C        22.8512419367       17.9297018879       11.6618046040
  C        23.0989491485       16.9753210677       12.6666435839
  C        24.3130280461       16.9555167944       13.3520936644
  C        21.5782659721       17.9097146046       10.8970793940
  C        21.5778363603       17.8753045651        9.4745804342
  C        22.7819740881       17.7342807096        8.7151216066
  C        34.4225417621       17.2212576442       13.9107711937
  C        35.7152748192       17.1507862212       13.1679065625
  C        35.9242527773       16.1624936506       12.1935151676
  C        37.1060785041       16.1367313231       11.4576956347
  C        38.1118517497       17.0979315253       11.6781799204
  C        37.9067854242       18.0654138524       12.6799103680
  C        36.7224517377       18.0961215857       13.4123107755
  C        39.3681526427       17.0990750406       10.8938349797
  C        39.3665985893       17.1139474519        9.4723438106
  C        38.1601302870       17.2273136562        8.7118778434
  C        20.3316057001       17.8981239948        8.7652904010
  C        20.3527363939       17.9223019451       11.5783205821
  C        34.4761128780       17.2504447473        2.1890157878
  C        35.7803117512       17.1716223305        2.9090241745
  C        36.0102824232       16.1652476215        3.8593225657
  C        37.1949019526       16.1468465086        4.5897893336
  C        38.1796051349       17.1325553410        4.3867450577
  C        37.9586736705       18.1132158814        3.4020981149
  C        36.7710825795       18.1373694763        2.6757506322
  C        39.4243975551       17.1479925047        5.1857249095
  C        39.3953582011       17.1397629524        6.6064486237
  C        38.1738663301       17.2371830621        7.3451696744
  C        35.1306286943       26.6571428035        7.3020599373
  C        35.1400226366       26.6840946351        4.4932477914
  C        26.5860767809       17.7916017231        2.3661265893
  C        25.2700259903       17.8414728964        3.0644569491
  C        25.0135461626       18.8287777304        4.0274510869
  C        23.7893796866       18.8574191329        4.6888849304
  C        22.7957060510       17.8962347230        4.4154042800
  C        23.0476097811       16.9347982994        3.4197507195
  C        24.2703885640       16.9063392854        2.7529812856
  C        21.5304053807       17.8745710077        5.1847363134
  C        21.5534086691       17.8543611363        6.6064699505
  C        22.7701269714       17.7228429664        7.3488675104
  C        14.0477510618       17.8281694049        2.2946425496
  C        15.3519640972       17.8821819720        3.0200527961
  C        15.6096959132       18.8799655724        3.9732746802
  C        16.8187802606       18.8959287814        4.6663551959
  C        17.8051020889       17.9169399172        4.4290662004
  C        17.5523315874       16.9442929861        3.4430380951
  C        16.3428084087       16.9234640157        2.7516700001
  C        19.0739390684       17.8928959485        5.1987495736
  C        19.0720322897       17.8840756713        6.6213884063
  C        17.8646315646       17.7886592566        7.3824187255
  C        46.8068867811       17.2210312971        2.1659186385
  C        45.5198955604       17.1658577673        2.9175991434
  C        45.3145965357       16.1914302312        3.9063476346
  C        44.1355199387       16.1792032112        4.6467364195
  C        43.1323247025       17.1414997320        4.4196920193
  C        43.3357956373       18.0970002926        3.4058312734
  C        44.5155477123       18.1130637315        2.6665364588
  C        41.8784770593       17.1521265337        5.2066410904
  C        41.8793393580       17.1405456513        6.6283889478
  C        43.0857456112       17.2342709690        7.3911476721
  C        20.3185393679       17.8867958638        7.3304318219
  C        20.2986327979       17.8731076397        4.5171877281
  C        46.7838144346       17.2295323592       13.8864783315
  C        45.4773251703       17.1183925294       13.1762930822
  C        45.2595750111       16.1195931300       12.2152624510
  C        44.0697688588       16.0891950985       11.4919051873
  C        43.0678866136       17.0539308917       11.7134311186
  C        43.2751358563       18.0210065248       12.7146408779
  C        44.4665306739       18.0582701107       13.4324101374
  C        41.8224727167       17.0755348082       10.9146096008
  C        41.8508884030       17.0994060939        9.4938982471
  C        43.0721699294       17.2125604829        8.7573292839
  C        46.1532647205       26.6371890904        8.7212742830
  C        46.1628147015       26.6563177377       11.5309197169
  C        14.0459582708       17.8313391807       13.7035203465
  C        15.3667595616       17.9033880315       13.0137074867
  C        15.6414818705       18.9146677308       12.0809193439
  C        16.8708671996       18.9481668738       11.4266283878
  C        17.8533538159       17.9695329346       11.6792473751
  C        17.5857602652       16.9880571759       12.6508901572
  C        16.3585139839       16.9538366087       13.3085538185
  C        19.1205333020       17.9382494720       10.9107007111
  C        19.0963092512       17.9066868317        9.4894065206
  C        17.8764850019       17.7988746042        8.7484850913
  C        28.8090502537       14.0841209361        2.3595024261
  C        28.2075699222       12.9067047713        3.0507467237
  C        28.9401526441       12.1685190045        3.9920033064
  C        28.3476705169       11.0954083705        4.6536672657
  C        27.0093991490       10.7351523672        4.3959057372
  C        26.2987729819       11.4535805495        3.4175224036
  C        26.8881332887       12.5279991697        2.7561831397
  C        26.3448360260        9.6544678258        5.1613272767
  C        26.3335563502        9.6802846885        6.5824960657
  C        26.8406124623       10.7920554168        7.3271254273
  C        32.1558008332       21.2672485870        2.1528991489
  C        32.7384022678       22.4369255880        2.8756779433
  C        31.9922043763       23.1013445399        3.8616618461
  C        32.5622810345       24.1410288309        4.5913467905
  C        33.8917477925       24.5424190009        4.3542969391
  C        34.6175060867       23.8967971159        3.3360411888
  C        34.0508342178       22.8528214246        2.6086758286
  C        34.5255670552       25.6145207744        5.1534120428
  C        34.5306862974       25.5782774277        6.5742572327
  C        34.0292280961       24.4592557615        7.3113340457
  C        25.7192280590        8.6048362979        7.3018746065
  C        25.7049272403        8.6049810688        4.4887638331
  C        32.1051542801       21.2315728760       13.8822104313
  C        32.7003170728       22.3796414868       13.1359851144
  C        31.9646404871       23.0429395094       12.1417874580
  C        32.5458231415       24.0716902379       11.4043792472
  C        33.8761706285       24.4675628870       11.6445249480
  C        34.5952599963       23.8173519032       12.6654708089
  C        34.0187439862       22.7824222921       13.3974093576
  C        34.5144529871       25.5503162895       10.8618841338
  C        34.5239729019       25.5460606786        9.4403066563
  C        34.0251297617       24.4437183218        8.6775812611
  C        40.6154737130       17.0991886808        8.7671388313
  C        40.5898058060       17.0953658494       11.5765935175
  C        28.7242007714       14.0984859859       13.7774414388
  C        28.1249128030       12.9442372462       13.0459570268
  C        28.8670857110       12.2423443866       12.0835340671
  C        28.2940644959       11.1758732232       11.3950744024
  C        26.9622179535       10.7858107678       11.6415669630
  C        26.2377844309       11.4746959642       12.6326747865
  C        26.8096375924       12.5399959362       13.3250756353
  C        26.3260827447        9.6904313888       10.8708720335
  C        26.3246282402        9.6994301782        9.4486916398
  C        26.8331093027       10.8024708780        8.6928841840
  C        18.1355165288        3.1812436177        2.3223144637
  C        17.4060466660        4.2783941225        3.0206372351
  C        16.3902031303        4.0000799164        3.9480607375
  C        15.7426121541        5.0400810516        4.6116207537
  C        16.0947194064        6.3837981846        4.3721042249
  C        17.0843792733        6.6532781381        3.4086043517
  C        17.7333540621        5.6159186146        2.7434747019
  C        15.4704788511        7.4914653158        5.1352583722
  C        15.4854146297        7.4905259402        6.5569763928
  C        16.1868884443        6.4968409501        7.3101324194
  C        42.9460089898       31.8596361726        2.0780797044
  C        43.6466279179       30.7719465325        2.8218548615
  C        44.5916365352       31.0933728675        3.8083843086
  C        45.1973057039       30.0878557608        4.5561419705
  C        44.8714376412       28.7347214685        4.3408575755
  C        43.9460440237       28.4203452393        3.3272501183
  C        43.3372377739       29.4254302599        2.5791335842
  C        45.4889344434       27.6553917651        5.1440716068
  C        45.4928398125       27.6808926190        6.5657722998
  C        44.8056439991       28.6888557112        7.3124144313
  C        14.8565405946        8.5630461810        7.2693737528
  C        14.8755081102        8.5634336012        4.4566860068
  C        42.9465117024       31.9617654952       13.8038754709
  C        43.6918561173       30.8855973737       13.0904694890
  C        44.6560185163       31.1915480768       12.1177700602
  C        45.2776446172       30.1719672917       11.4001156130
  C        44.9542307379       28.8216249669       11.6380853684
  C        44.0214017511       28.5239271568       12.6494658812
  C        43.3930557123       29.5406809232       13.3615809975
  C        45.5632492192       27.7241855540       10.8528882830
  C        45.5333128448       27.7173468427        9.4315895148
  C        44.8268522178       28.7074608155        8.6786035148
  C        35.1268581286       26.6403875319        8.7364095001
  C        35.1253725135       26.6075274456       11.5461633072
  C        18.1487002254        3.2472003981       13.7014421044
  C        17.4300791165        4.3439467602       12.9923245593
  C        16.4146906451        4.0526985196       12.0689137692
  C        15.7664188721        5.0833308212       11.3935306081
  C        16.1212807424        6.4285597653       11.6160587063
  C        17.1128649442        6.7119298061       12.5731149231
  C        17.7605172944        5.6830176181       13.2528940360
  C        15.4908174903        7.5242417345       10.8435879537
  C        15.4963953132        7.5073636196        9.4224581950
  C        16.1930849191        6.5056224998        8.6757405016
  H        10.6722702686       12.4649479162       11.9003623255
  H        11.6946470456       10.5500977934       10.6585544885
  H        15.3927304911       11.1703731947       12.7655396552
  H        14.3522491225       13.0731304915       14.0105400294
  H        13.3764163010       11.6312334298        9.1963051245
  H        50.3230154639       22.7483012780       11.9816098572
  H        49.3199195899       24.6227855851       10.6756241487
  H        45.6428208146       24.1619073209       12.8592477375
  H        46.6637823789       22.2908387182       14.1675225677
  H        47.6301511751       23.5760132528        9.2412534870
  H        14.8728604597        8.5887682790       12.6034977253
  H        50.2870667524       22.7020661606        4.0659431705
  H        49.2692768109       24.5749873118        5.3660022021
  H        45.6111579343       24.1101387406        3.1505787912
  H        46.6532342748       22.2546684100        1.8362011356
  H        47.6080770978       23.5519364943        6.8021067922
  H        40.6653272978       17.1518760840        3.4361324542
  H        48.6873086042       14.0951388130       15.7949226992
  H        10.6812293102       12.4657562206        4.0974153533
  H        11.6897266954       10.5238341170        5.3010660568
  H        15.3949030916       11.1611481280        3.2126864407
  H        14.3662935092       13.0894742245        1.9975703431
  H        13.3761807849       11.6222902811        6.7582705254
  H        47.9302595166       14.2189396956        1.7160455084
  H        47.7802611292       14.3749221743       14.4905054174
  H        49.0851565996       18.5529403239        2.8728681587
  H        10.4164811368       14.1342946879        0.0039951603
  H        24.4831822934        3.0295684751       11.9071017164
  H        25.6252183878        4.8855840950       10.6801759710
  H        23.2559537616        7.7567213497       12.8346901418
  H        22.1324991277        5.8910286884       14.0637284498
  H        23.8231897499        5.7925687814        9.2500996906
  H        36.3690006100       32.1883691623       11.9722495735
  H        35.2443718085       30.3613654416       10.6940115140
  H        37.5241164641       27.4414978680       12.8803478341
  H        38.6276974738       29.2813243414       14.1683115774
  H        37.0230342124       29.4565069958        9.2737184663
  H        25.7389429413        8.6173702673       12.6369397320
  H        36.4609477239       32.2562750646        4.1159240895
  H        35.3373173991       30.4477275372        5.4149515638
  H        37.5011999054       27.4940717128        3.1560072470
  H        38.6006949824       29.3149790971        1.8452916685
  H        37.0326810415       29.4824511998        6.8352002966
  H        46.1101449772       26.5879613613        3.3907965708
  H        44.6683178431       35.1162620376       15.8088665150
  H        24.4427362273        3.0347977742        4.0845224768
  H        25.5843678298        4.8705999677        5.3311699081
  H        23.1858041740        7.7667840661        3.2445003454
  H        22.0557767979        5.9191750989        1.9973787927
  H        23.8083365433        5.7904363147        6.8119557254
  H        44.9538904550       34.3903693679        1.7001986103
  H        44.9017507262       34.2068651177       14.4855265252
  H        40.6664667279       33.2096878620        2.8584735018
  H        23.1506766400        1.9582698554        0.0097567971
  H        25.8316185438       19.6150832025       11.8765760944
  H        23.6614711613       19.6531258254       10.6443390473
  H        22.3407697813       16.2249165366       12.8813777571
  H        24.5139672965       16.2046231607       14.1126983720
  H        23.7214348724       17.6053943954        9.2447516819
  H        35.1441184141       15.4231088897       12.0274914912
  H        37.2684005442       15.3629958266       10.7103408856
  H        38.6761057955       18.8147783204       12.8545114469
  H        36.5474394403       18.8571915825       14.1692729208
  H        37.2178785949       17.3381632257        9.2410731639
  H        20.3590840541       17.9718242922       12.6658058928
  H        35.2447964992       15.4100295743        4.0211591380
  H        37.3718409227       15.3646458395        5.3247750621
  H        38.7143878112       18.8792325184        3.2408340599
  H        36.5775591006       18.9110404139        1.9364328754
  H        37.2418848580       17.3529799118        6.7992990270
  H        35.1045446887       26.7149648828        3.4059187454
  H        28.5084081520       21.0832644836       15.9769460426
  H        25.7851714596       19.5638394752        4.2443096457
  H        23.5900647300       19.6272633124        5.4310859547
  H        22.2888729541       16.1857603620        3.2026208370
  H        24.4810104333       16.1525297098        1.9981981978
  H        23.7008261146       17.5846166643        6.8066187510
  H        28.9605289753       21.7252003175        1.7974349626
  H        29.1586487747       21.7466423876       14.6230813995
  H        32.0864218735       18.5406214937        3.0014349208
  H        27.3925959306       19.0619615215        0.1000218400
  H        14.8522049661       19.6389245398        4.1558939923
  H        17.0143073347       19.6759457766        5.3990742639
  H        18.3030989801       16.1807647801        3.2498121953
  H        16.1369424901       16.1586553358        2.0066012902
  H        16.9217841048       17.6758663546        6.8551567609
  H        46.0958553996       15.4568660017        4.0871050204
  H        43.9760184246       15.4149453875        5.4041769079
  H        42.5696441917       18.8485807379        3.2270921093
  H        44.6894416604       18.8644895485        1.8998995777
  H        44.0283061393       17.3563832056        6.8651252735
  H        20.2935786535       17.9113493740        3.4292941484
  H        46.0390429668       15.3826829130       12.0354255757
  H        43.9045300525       15.3152895595       10.7454563580
  H        42.5064603421       18.7701756706       12.8925844763
  H        44.6486135843       18.8249057652       14.1815607585
  H        44.0044463992       17.3167787136        9.3047900619
  H        46.1999968630       26.6830321557       12.6183493065
  H        52.7415813038       21.0628309994        0.1998558914
  H        14.8817237556       19.6681249832       11.8851104673
  H        17.0829986253       19.7350386749       10.7059815994
  H        18.3359524238       16.2265739720       12.8539882377
  H        16.1366722098       16.1827187714       14.0422282256
  H        16.9425361801       17.6937346640        9.2923157477
  H        52.3237113315       21.6737105229       14.2886851460
  H        52.0141079836       21.7027132061        1.5008913076
  H        49.0678299401       18.6075718900       13.1988654304
  H        13.2482322842       19.0155531427       15.9724939349
  H        29.9720600128       12.4510434628        4.1895179871
  H        28.9170496065       10.5233948119        5.3830659010
  H        25.2644440236       11.1859706364        3.2115929369
  H        26.3357922510       13.1050454513        2.0185969452
  H        27.2083427819       11.6596330028        6.7871101908
  H        30.9679692320       22.7833198673        4.0462922757
  H        31.9792366796       24.6590734477        5.3498753820
  H        35.6457760866       24.1989302580        3.1480348491
  H        34.6154945141       22.3280968343        1.8414636558
  H        33.6717121212       23.5933100205        6.7619954124
  H        25.7327108462        8.5863973036        3.4006911300
  H        30.9384794683       22.7351513180       11.9544845370
  H        31.9679996758       24.5882061476       10.6409384530
  H        35.6251475339       24.1124972922       12.8556042409
  H        34.5781144953       22.2577390607       14.1684950258
  H        33.6639205572       23.5659737358        9.2058394894
  H        40.5800981037       17.0562828698       12.6642141767
  H        32.5100698795       14.1533659669        0.2610394919
  H        29.8958196196       12.5410487416       11.8953990412
  H        28.8775805992       10.6275283600       10.6587556667
  H        25.2071239298       11.1868656051       12.8297164461
  H        26.2467368275       13.0869275611       14.0778150675
  H        27.1936759192       11.6787710992        9.2233740534
  H        33.2937636811       14.2004473197       14.4313771564
  H        33.4121793120       14.4050584560        1.5995087936
  H        32.1257460469       18.5653626485       13.1890393250
  H        30.2274325713       14.1954952325        0.0702154766
  H        16.1179216546        2.9636091827        4.1343005271
  H        14.9529567018        4.8207738426        5.3270723635
  H        17.3670729201        7.6861180010        3.2156769317
  H        18.5155969129        5.8186315695        2.0158664868
  H        16.7534822471        5.7395130023        6.7766602881
  H        44.8275386436       32.1404929658        3.9828782742
  H        45.9369806713       30.3416973442        5.3122479427
  H        43.6839717932       27.3781973716        3.1566686800
  H        42.6010150250       29.1900700368        1.8141040089
  H        44.2303515224       29.4366588176        6.7740925614
  H        14.8521075543        8.5469603378        3.3684532103
  H        44.8992297675       32.2342524195       11.9260136220
  H        46.0242140353       30.4132571174       10.6465644745
  H        43.7649660117       27.4841529297       12.8414713108
  H        42.6470690976       29.3179071906       14.1205341097
  H        44.2684016290       29.4704054857        9.2131655980
  H        35.0866500102       26.6176646482       12.6337706351
  H        36.6051129539       35.1343990239        0.1855954550
  H        16.1434226797        3.0131516031       11.8993450288
  H        14.9739497463        4.8565586428       10.6835877590
  H        17.3966214495        7.7473692527       12.7497906061
  H        18.5436076807        5.8935354293       13.9774059267
  H        16.7645618019        5.7554035958        9.2141584527
  H        36.2785667699       34.4829759797       14.2678687404
  H        36.3808065890       34.2093950681        1.5044859201
  H        40.5809192389       33.2033898812       13.1483004444
  H        17.4709712104        1.9481543363       15.9690032611
  H        28.8097845177       18.9259962988        4.3933341583
  H        29.6584649903       19.9026463871       11.6893633960
  H        32.0537105878       16.0542852669       10.4992215802
  H        32.2251656416       16.1768908242        4.4828328515
  H        28.2263857443       17.3553370436        6.8726735269
  H        32.2366032687       15.0696694966        7.3245897629
  H        31.4469703683       20.1281207241        9.5611475163
  H        33.2051537442       15.4636626949        9.5546177188
  H        29.1391867427       16.6179682293        9.1302347657
  H        18.8536258656        0.8691722503        4.3403758774
  H        40.5278682057       35.2291345058       11.9468077067
  H        42.3251687501       34.4200399947       11.5848372126
  H        22.0875746530        0.6920851312        4.3569696719
  H        11.5969708744       18.7128187125        4.3876462718
  H        52.2652957924       18.4314567715       11.6722491786
  H        49.2550200975       16.4770157935       11.5792536570
  H        10.1504606399       15.7982775566        4.2976288827
  H        50.8506390116       17.6926976849       11.9490029799
  H        10.0463530579       17.3947112527        4.0569232325
  H        20.2148385261        0.0023266682        4.0470931562
  H        39.1837265157       36.1245428196       11.6812478824
  H        32.2144016844       18.4555120660        6.5428945186
 Ni        30.6447948316       17.9885818464       10.8245687584
 Ni        31.2883435245       15.9453818488        7.9986652848
 Ni        30.0134174642       18.8000671774        7.8296369654
 Ni        30.1822096406       17.2333964547        5.4112791920
  O        10.6500608434       14.3652054432       13.4806316249
  O        12.6132253838       14.6575860278       14.5787612108
  O        49.1479441464       16.8458503910       15.9844733543
  O        50.3504100500       20.9358153104       13.6428901562
  O        48.3485821591       20.5933792393       14.6607792652
  O        11.0519811212       17.0537412740       14.4956201303
  O        50.3210398778       20.8816903013        2.4118428124
  O        48.3467483490       20.5868666913        1.3321190188
  O        49.5437631222       18.2483074655        2.0732123025
  O        12.3592656223       18.6248077422        0.0048760155
  O        48.6932344769       14.1486332386       14.7461818140
  O         8.2098793860       14.2104767933        1.3276393353
  O        10.7354509067       14.5068247697        2.6694881288
  O        12.5717801193       14.5827829145        1.3335698699
  O        22.8451951897        2.0442168822       13.4817926927
  O        21.6065496821        3.5932084364       14.5836100452
  O        42.0585175912       34.1377777838       15.9738282389
  O        37.9818424143       33.1392157905       13.5678372747
  O        39.2185973777       31.5768808754       14.6621926061
  O        20.3087433804        1.0400992170       14.4971812906
  O        38.0251774559       33.1872601002        2.4198518835
  O        39.2187624346       31.5836919759        1.3322689642
  O        40.6524084101       33.7695564999        2.0653129636
  O        18.2554905990        1.3767590365        0.0018743947
  O        44.6221859323       35.1005977568       14.7536601183
  O        24.2054644001       -0.0000006217        1.3258181236
  O        22.7531253737        2.0574527087        2.5886911283
  O        21.6249617691        3.5964539778        1.3484473726
  O        27.4905299817       18.7517542517       13.4994380232
  O        26.7678299239       16.9286559054       14.6535883016
  O        30.6645580775       19.4083992812        0.0822644364
  O        33.5438120248       16.3301643175       13.6471881520
  O        34.2761606828       18.1800170585       14.7386922502
  O        29.5739789565       17.0700964658       14.5727000442
  O        33.6140376763       16.3325313535        2.4259536048
  O        34.3043182426       18.2480271191        1.4138772752
  O        31.6536452130       18.3199687383        2.1614195374
  O        30.3246666042       15.1618435221        0.0788631309
  O        28.5535891010       21.0357684508       14.9023989454
  O        28.5108488417       20.9518569409        1.4177242953
  O        27.4951780327       18.6082340605        2.7397283504
  O        26.6947641610       16.9307944706        1.4197943336
  O        13.1494853942       18.6925359242        2.5927347534
  O        13.9192234485       16.9161647878        1.4100398722
  O        50.5966457788       19.3502810432        0.0255607595
  O        47.6832403373       16.3272934997        2.4225723725
  O        46.9518049019       18.1760708021        1.3295248474
  O        11.0701054018       17.0154691755        1.4947311347
  O        47.6750152256       16.3355869269       13.6480182750
  O        46.9260950398       18.2359708428       14.6591336057
  O        49.5686997921       18.3176620095       13.9772794173
  O        10.3187731751       15.1001114846        0.0022791996
  O        52.6708521588       21.0278818260        1.2469199524
  O        12.1468530852       20.8912185341       14.6681705989
  O        13.1082970539       18.6135542560       13.3205985195
  O        13.9566975672       16.9869071047       14.6606067522
  O        29.9964675818       14.4355809076        2.6686489144
  O        28.0751967864       14.6591967012        1.4850465364
  O        32.1361629419       16.8572586752        0.0864510614
  O        30.9531097645       20.9506940486        2.4278636287
  O        32.9204643772       20.6541396475        1.3324175938
  O        29.5716378288       17.0733508222        1.5869118768
  O        30.8756587386       20.9550769000       13.6636421145
  O        32.8806551068       20.5845134421       14.6620876000
  O        31.6790137148       18.2565153725       13.9936748273
  O        28.2833641871       18.6749202223        0.0962991575
  O        32.4940757919       14.2145756780        1.3330986373
  O        32.3999459515       14.2200245846       14.8114077713
  O        29.8786180667       14.5124722236       13.4054556605
  O        28.0441791847       14.5850118608       14.7427284540
  O        17.8891482791        1.9667097279        2.6677819509
  O        18.9562475823        3.5271635288        1.4129819076
  O        39.1687302973       34.1390138358        0.0023098291
  O        43.2802876785       33.0589992358        2.3368587424
  O        42.0345771307       31.5064608757        1.2468312252
  O        20.3179434893        1.0371608985        1.4848441460
  O        43.2760863143       33.1826604685       13.5698138320
  O        42.0053581884       31.5842049811       14.5779652375
  O        40.5789848298       33.7753196258       13.9309313654
  O        22.3675708999        1.3849747493        0.0030221771
  O        36.6727403012       35.0999810566        1.2382536067
  O        16.4457153665        0.0644811807       14.6632697060
  O        17.9365403719        2.0434403630       13.3213260717
  O        18.9191502314        3.5931959742       14.6608408069
  O        29.7825392642       19.0580657314       12.1594459474
  O        29.7397965793       18.9733662617        4.0864916399
  O        31.1807991508       16.3389044489       11.9755238857
  O        31.3629957439       16.3359488666        4.0642114146
  O        32.4887490767       16.1177629128        9.5795465144
  O        29.9959043254       17.0742786218        9.0812557217
  O        30.0652346457       15.6053193245        6.6426833211
  O        31.4761591235       17.8880745141        6.8201019262
  O        30.6639498544       19.5579143514        9.5518955081
  O        28.7241040898       18.0986013711        6.4936347976
  O        39.4568063772       35.2439153034       11.9968837734
  O        19.1414231094        0.0046509910        3.9956392816
  O        41.9696621400       35.1729322056       12.0821259143
  O        21.6913251057       -0.0693387195        3.9011602835
  O        51.3652944001       18.6144166119       12.0001710033
  O        10.7512048390       18.7470762672        3.9099490497
  O        50.0793361004       16.4127102509       12.0866326518
  O         9.5244993031       16.4831472567        3.9962397149
 Zr         9.2983099579       16.0528031030       14.1773964715
 Zr        49.8376729710       16.0066752276        1.7512569491
 Zr        22.0736132167        0.0310176341       14.1836366236
 Zr        42.4611681452       35.1543263358        1.8063160188
 Zr        29.5899027233       19.1075718868       14.2992905994
 Zr        29.5759623160       19.1747625110        1.9084793639
 Zr        11.0395324861       19.0516830471        1.8330547368
 Zr        11.0453110518       19.1546694004       14.2455672940
 Zr        31.3449378427       16.1009652305        1.8989431396
 Zr        31.3930669095       16.0358145016       14.2755493095
 Zr        18.6014806045       -0.0000458849        1.7682130920
 Zr        18.5068875783       -0.0064020316       14.2089413278
 Zr        12.3039247023       16.3237073100       15.9853304279
 Zr        48.6182208828       18.8333292117        0.0150773157
 Zr        20.3160928671        2.4749779000       15.9852932875
 Zr        40.6443707552       32.6882594927       15.9733645307
 Zr        28.3423122766       16.3462504291        0.0862083379
 Zr        32.6151907347       18.8501229491        0.0676482715
  O        30.1970261740       20.5036328629        6.3369928182
  H        31.0398897312       20.9816281687        6.2940297283
  H        30.1073628924       20.0330180792        5.4502598162
  H        30.3667225003       14.8498717453        6.1092537987
  H        30.4490180953       15.7028258782       11.8461600492
