     566
 i =      326, E =     -4712.3039343901
  C        11.8586280704       14.0534170409        21.731349225038
  C        12.4560653337       12.8904676963        21.013008786338
  C        11.7044922243       12.1718886977        20.070996665138
  C        12.2808210315       11.1096615319        19.378646644338
  C        13.6212430400       10.7394815099        19.606679701738
  C        14.3542698132       11.4426997932        20.580521376138
  C        13.7814123722       12.5076584891        21.272074096638
  C        14.2606877841        9.6487785663        18.833291672538
  C        14.2558590520        9.6566181539        17.411588066538
  C        13.7428024027       10.7587690867        16.657644389438
  C        49.1264663385       21.2334715570        21.869580440438
  C        48.5495342754       22.4012412373        21.142483395438
  C        49.2995538122       23.0685604162        20.161467363638
  C        48.7325572270       24.1075902401        19.428194780238
  C        47.4019977894       24.5091756799        19.656809659538
  C        46.6710624790       23.8603201836        20.670351588838
  C        47.2335682093       22.8154989604        21.399777411538
  C        46.7717614719       25.5868174344        18.859495959638
  C        46.7608978253       25.5572361425        17.437739901538
  C        47.2607966760       24.4421153586        16.694266842838
  C        14.8596148323        8.5701699438        16.698334629038
  C        14.8914513688        8.5968165123        19.509945081138
  C        49.1129491887       21.2035052864       10.1453307868
  C        48.5275619713       22.3648674595       10.8723769611
  C        49.2666674176       23.0253689683       11.8655335279
  C        48.6903077184       24.0598782925       12.5970116280
  C        47.3599821843       24.4568312702       12.3585619630
  C        46.6397057264       23.8121373925       11.3348010403
  C        47.2132899407       22.7762811452       10.6029789666
  C        46.7214845488       25.5317248679       13.1496163540
  C        46.7331994642       25.5280557094       14.5713174955
  C        47.2485933939       24.4288313417       15.3277146535
  C        40.6194431751       17.0816063202       15.3099197670
  C        40.6310758568       17.1148533889       12.4996564779
  C        11.8827558371       14.0863177763       10.2855340480
  C        12.4717346784       12.9102532228       10.9895569665
  C        11.7142394762       12.1775448400       11.9160796549
  C        12.2805856080       11.0949546056       12.5844692273
  C        13.6191530115       10.7205713031       12.3522032409
  C        14.3570324983       11.4355477761       11.3908782927
  C        13.7918376186       12.5168453692       10.7182105157
  C        14.2526833333        9.6238654247       13.1227037848
  C        14.2516075868        9.6439999830       14.5445445774
  C        13.7420439099       10.7531042279       15.2915976261
  C        22.5078022716        3.2430217133        21.741329529838
  C        23.2147466195        4.3481316884        21.036067809638
  C        24.2078684116        4.0684403800        20.086086728038
  C        24.8283421049        5.1085238750        19.399632735838
  C        24.4702223987        6.4490987936        19.643563396038
  C        23.5044763392        6.7203416037        20.629629918138
  C        22.8796419984        5.6821677742        21.314723076538
  C        25.0731189703        7.5557968828        18.868095811938
  C        25.0524026685        7.5476346570        17.446887308238
  C        24.3537258102        6.5477323683        16.698529727438
  C        38.2974486743       31.9278854480        21.841895780038
  C        37.5540299606       30.8401668566        21.141176187038
  C        36.5878610778       31.1492589785        20.171079888038
  C        35.9546958271       30.1330261874        19.460630692938
  C        36.2720191470       28.7808140941        19.696379887038
  C        37.2076030060       28.4791512476        20.704243122638
  C        37.8447468174       29.4944542439        21.414324640838
  C        35.6583584082       27.6944439621        18.897245548438
  C        35.6972295356       27.7096762348        17.475384733738
  C        36.4120225931       28.7090298550        16.742320741538
  C        25.6794983388        8.6167526287        16.729630758638
  C        25.6654635600        8.6313697274        19.541218731238
  C        38.3301141852       31.9600190052       10.1608988064
  C        37.6133632869       30.8869886370       10.9108198242
  C        36.6787379606       31.1967818347       11.9111762354
  C        36.0678867101       30.1803393668       12.6439100717
  C        36.3761631485       28.8262985067       12.4017000158
  C        37.2921346836       28.5264234544       11.3742910092
  C        37.9046202586       29.5394316007       10.6423370923
  C        35.7590101379       27.7287049866       13.1838141491
  C        35.7485666514       27.7271806706       14.6066559871
  C        36.4348017242       28.7186765628       15.3759253464
  C        46.1351513699       26.6206781317       15.2814382222
  C        46.0875179329       26.5800742053       12.4735610464
  C        22.4609177014        3.2543995522       10.2549660901
  C        23.1568299119        4.3627772637       10.9741018835
  C        24.1626305938        4.0763630142       11.9105077366
  C        24.7918443293        5.1068833665       12.6039658120
  C        24.4343208737        6.4516786582       12.3827553373
  C        23.4521756774        6.7315502110       11.4142793741
  C        22.8184722319        5.7012884337       10.7210489560
  C        25.0634489487        7.5488433154       13.1576478399
  C        25.0485238889        7.5432126242       14.5796690922
  C        24.3496119156        6.5470635514       15.3320862531
  C        26.5119368583       17.7905590514        21.813071832638
  C        25.2179513230       17.8466748217        21.074039687938
  C        24.9648314908       18.8701427806        20.147969061638
  C        23.7659801156       18.8952142998        19.440261916538
  C        22.7876512649       17.9024235687        19.643265139438
  C        23.0351737637       16.9007421285        20.599714041538
  C        24.2373118863       16.8689005434        21.302663229938
  C        21.5269174519       17.9013062071        18.865197104038
  C        21.5418970804       17.9051068589        17.444277509838
  C        22.7555582721       17.7947414952        16.694952793538
  C        34.4119315990       17.2203728115        21.867897162338
  C        35.7149246415       17.1542969025        21.142817808038
  C        35.9195140786       16.1810435964        20.152315644838
  C        37.1065447094       16.1544412193        19.426195925838
  C        38.1199124237       17.1028414716        19.666372987438
  C        37.9192281976       18.0544905763        20.684562726038
  C        36.7309736886       18.0837710375        21.411598614538
  C        39.3738690638       17.1058046944        18.878595338638
  C        39.3665077100       17.1085941553        17.456163360038
  C        38.1575572966       17.2221452847        16.699632839038
  C        20.3016976272       17.9352528921        16.727060387738
  C        20.2994269025       17.8942165747        19.538537223238
  C        34.4434715408       17.2435219509       10.1756726244
  C        35.7431301085       17.1461045572       10.9030237743
  C        35.9639991388       16.1441761676       11.8603266225
  C        37.1517474819       16.1157978373       12.5875692549
  C        38.1510710788       17.0852204192       12.3740148706
  C        37.9382184159       18.0602369995       11.3814805319
  C        36.7483361013       18.0955757925       10.6600300834
  C        39.4012370309       17.0958506004       13.1673718286
  C        39.3805979437       17.1013664896       14.5887298088
  C        38.1641965945       17.2152000578       15.3329431094
  C        35.1055047640       26.6522835284       15.3070301494
  C        35.1774660250       26.6546335224       12.4971954624
  C        26.5731378278       17.8291658130       10.3263358691
  C        25.2585466546       17.8818295309       11.0299242417
  C        24.9936038538       18.8977202967       11.9604831711
  C        23.7753984805       18.9298972624       12.6328007533
  C        22.7942917108       17.9476039482       12.3935991474
  C        23.0531308831       16.9570065656       11.4296872655
  C        24.2727101581       16.9215958997       10.7575989944
  C        21.5274706411       17.9362533482       13.1587672049
  C        21.5414606363       17.9216880627       14.5793978872
  C        22.7548624467       17.8021103995       15.3288654719
  C        14.0460157975       17.8340339819       10.2812298833
  C        15.3549559081       17.9037839641       10.9924077791
  C        15.6165774761       18.9236149105       11.9200691975
  C        16.8291899667       18.9541124361       12.6046420311
  C        17.8099963770       17.9672534226       12.3823409054
  C        17.5551182812       16.9738768013       11.4189621080
  C        16.3422533337       16.9393082830       10.7352619160
  C        19.0741082718       17.9508167644       13.1555799344
  C        19.0602326010       17.9408301852       14.5766611304
  C        17.8453985323       17.8414332971       15.3252731514
  C        46.8025650764       17.2167173392       10.1571661412
  C        45.5093227474       17.1481784529       10.8982919540
  C        45.3020271773       16.1631044201       11.8764234046
  C        44.1180511044       16.1368624003       12.6088604487
  C        43.1103618304       17.0957372782       12.3862621660
  C        43.3144756940       18.0599789139       11.3805610894
  C        44.4992187438       18.0898531005       10.6486037240
  C        41.8569024380       17.1000786005       13.1759407125
  C        41.8648324471       17.0968362952       14.5983109982
  C        43.0749946227       17.1930113445       15.3551294688
  C        20.3009533738       17.9428154495       15.2938087038
  C        20.3017390801       17.9301811326       12.4820329403
  C        46.7841209779       17.2321113078        21.876582747538
  C        45.4820854003       17.1262553602        21.157225972638
  C        45.2644907315       16.1246079454        20.198758684938
  C        44.0771490016       16.0943576678        19.471114923538
  C        43.0768469180       17.0629767149        19.683824743438
  C        43.2855849672       18.0357676761        20.679519111138
  C        44.4739166258       18.0720411779        21.402705903038
  C        41.8290186918       17.0792318402        18.887861497638
  C        41.8507054433       17.0852668647        17.466412713438
  C        43.0682291079       17.1847517633        16.721922411838
  C        46.1528606205       26.6370874812        16.715979907638
  C        46.1618261774       26.6559423410        19.525618315038
  C        14.0361233209       17.8251721171        21.694031912938
  C        15.3451047312       17.8866341184        20.986709737038
  C        15.6153773307       18.9090810702        20.065687136738
  C        16.8362365996       18.9404865802        19.397659115338
  C        17.8090722815       17.9479813662        19.627257495838
  C        17.5437545292       16.9499300833        20.581663986538
  C        16.3254181784       16.9184760276        21.253836909038
  C        19.0746398991       17.9279628957        18.861415508338
  C        19.0607685631       17.9279894627        17.440979839838
  C        17.8457412972       17.8353552558        16.690993654438
  C        28.8115289027       14.0868642678       10.3922733642
  C        28.2001368481       12.9099794178       11.0731589106
  C        28.9267092867       12.1633031319       12.0119637652
  C        28.3274504504       11.0887517998       12.6639060583
  C        26.9885044778       10.7375391204       12.3988363067
  C        26.2842537382       11.4629176585       11.4215148581
  C        26.8809970794       12.5381948869       10.7689415236
  C        26.3176218153        9.6589108588       13.1591437028
  C        26.2988745207        9.6865843790       14.5796711660
  C        26.8011450737       10.7995298487       15.3260578423
  C        32.1818728795       21.2369682854       10.1375956633
  C        32.7778774893       22.4005055816       10.8624394798
  C        32.0219126201       23.0891113976       11.8241886987
  C        32.5885159611       24.1289271045       12.5553748673
  C        33.9283312952       24.5105258298       12.3475622602
  C        34.6678195493       23.8405423942       11.3542545158
  C        34.1030588466       22.7952904201       10.6244040452
  C        34.5501892033       25.5886117674       13.1522870240
  C        34.5199856609       25.5676160731       14.5745422916
  C        33.9957066937       24.4584939318       15.3109250629
  C        25.6829455442        8.6105919164       15.2958005156
  C        25.6827544425        8.6092031143       12.4833111410
  C        32.0647188733       21.1961870290        21.861032353038
  C        32.6303186677       22.3681293007        21.127095574838
  C        31.8940813981       23.0193718525        20.125242660238
  C        32.4645671927       24.0618374417        19.396347454338
  C        33.7856338684       24.4832028986        19.648191315838
  C        34.5018259101       23.8471291786        20.680830753238
  C        33.9366122864       22.8016317252        21.405695806038
  C        34.4272878164       25.5674155015        18.866318538838
  C        34.4557618226       25.5574594594        17.443588706738
  C        33.9635529037       24.4541361510        16.677448109638
  C        40.6117853342       17.0804756138        16.744945624238
  C        40.5991793436       17.1074054794        19.555155921538
  C        28.7305846181       14.0607881356        21.776447952838
  C        28.1133387296       12.9151436821        21.048427850038
  C        28.8511994830       12.1979000247        20.094163031538
  C        28.2640105239       11.1436318036        19.400573277038
  C        26.9238291433       10.7798017823        19.638128342438
  C        26.2031496198       11.4814449411        20.622176577138
  C        26.7885901814       12.5375359554        21.317365818838
  C        26.2804269548        9.6920171562        18.865249759838
  C        26.2802014775        9.7043280357        17.443935066838
  C        26.7894961997       10.8093540003        16.691794777238
  C        18.1352404516        3.1807859938       10.3172137030
  C        17.4056701770        4.2779122844       11.0157997543
  C        16.3898829410        3.9993265707       11.9431631260
  C        15.7418867712        5.0391724490       12.6066135062
  C        16.0936341491        6.3829415867       12.3670269486
  C        17.0830808408        6.6526930998       11.4034012697
  C        17.7324279241        5.6154833402       10.7383911088
  C        15.4691450436        7.4905488236       13.1300624606
  C        15.4845068693        7.4899432493       14.5517732393
  C        16.1861682531        6.4963974705       15.3049350024
  C        42.9457117895       31.8594710539       10.0728086506
  C        43.6460096809       30.7717565664       10.8167822746
  C        44.5915616545       31.0930659671       11.8028273349
  C        45.1971963284       30.0875076530       12.5505241579
  C        44.8707138484       28.7344661899       12.3356441148
  C        43.9449148109       28.4201306666       11.3224131436
  C        43.3361744288       29.4252907202       10.5743359971
  C        45.4882807055       27.6551715123       13.1388331074
  C        45.4924237803       27.6807920744       14.5605221982
  C        44.8053005136       28.6888279629       15.3071286279
  C        14.8556392924        8.5625114485       15.2641105783
  C        14.8737375326        8.5622154630       12.4514506257
  C        42.9462810468       31.9615107897        21.798758518438
  C        43.6913842200       30.8853413668        21.085201146838
  C        44.6561462370       31.1912339991        20.113070508338
  C        45.2776077553       30.1716321197        19.395318680838
  C        44.9535723446       28.8213538771        19.632786558338
  C        44.0198686495       28.5236912769        20.643349223538
  C        43.3916636320       29.5404775724        21.355545757938
  C        45.5625885724       27.7239461238        18.847547558138
  C        45.5329194287       27.7172631879        17.426257087538
  C        44.8265770546       28.7074818979        16.673311771738
  C        35.0758712019       26.6453794867        16.742646455138
  C        35.0409827157       26.6231325720        19.553264519238
  C        18.1483991049        3.2468235526        21.696338698938
  C        17.4297699288        4.3436208321        20.986946986838
  C        16.4144014827        4.0523146277        20.063577589038
  C        15.7659991587        5.0829252518        19.388228216038
  C        16.1207482747        6.4281577833        19.610805446638
  C        17.1123408827        6.7115812341        20.567824566138
  C        17.7600712529        5.6826888107        21.247568040338
  C        15.4901874923        7.5238309317        18.838368831938
  C        15.4958759123        7.5070936296        17.417231895238
  C        16.1925423519        6.5053216423        16.670538838838
  H        10.6724836349       12.4662982843        19.893736749838
  H        11.6945998907       10.5514027446        18.651883769938
  H        15.3911628393       11.1677777733        20.762553470638
  H        14.3507249495       13.0704767644        22.007941127338
  H        13.3760739511       11.6310474398        17.190896399038
  H        50.3222811567       22.7485698894        19.976762107938
  H        49.3189961832       24.6228669221        18.670590382138
  H        45.6415591785       24.1610680899        20.853507400538
  H        46.6625776700       22.2902775826        22.161903524338
  H        47.6292803661       23.5757168191        17.235954606538
  H        14.8718933040        8.5881041936        20.598254397938
  H        50.2866319564       22.7023646309       12.0606038222
  H        49.2685987690       24.5751752939       13.3606963826
  H        45.6103782592       24.1095372032       11.1455667309
  H        46.6525549068       22.2543161543        9.8312176895
  H        47.6073347936       23.5516830163       14.7968430015
  H        40.6349513343       17.0882860268       11.4116081557
  H        48.6870838679       14.0950775634        23.789803139038
  H        10.6809652006       12.4671114711       12.0938109256
  H        11.6888059197       10.5249241981       13.2974663119
  H        15.3922550938       11.1571348801       11.2045599023
  H        14.3641534397       13.0857704258        9.9893149628
  H        13.3753443557       11.6217587162       14.7529418012
  H        47.9300845490       14.2184017036        9.7107567002
  H        47.7799487469       14.3739740506        22.485208209138
  H        49.0822718072       18.5520536879       10.8670973511
  H        10.4158084857       14.1342867133        7.9989013918
  H        24.4711327556        3.0301533682        19.896965556438
  H        25.5997041608        4.8930921938        18.663459125738
  H        23.2214234942        7.7529239135        20.823068630238
  H        22.1119022412        5.8804788912        22.058547529538
  H        23.7894512732        5.7917936245        17.236866933338
  H        36.3578648563       32.1939106832        19.975334882138
  H        35.2065062333       30.3781746632        18.709977491338
  H        37.4609197420       27.4383453125        20.895236786738
  H        38.5923500100       29.2672731398        22.170738355838
  H        36.9742010960       29.4583290644        17.291935363138
  H        25.6956166854        8.6152192426        20.629163933238
  H        36.4497842872       32.2411034522       12.1113163874
  H        35.3364795326       30.4286823128       13.4098448482
  H        37.5449161612       27.4862090927       11.1796937480
  H        38.6319124202       29.3102663456        9.8672030913
  H        37.0152062319       29.4750765971       14.8554092232
  H        46.1089425692       26.5874990355       11.3855264074
  H        44.6681962243       35.1161738685        23.803832911838
  H        24.4410037831        3.0381127721       12.0762725427
  H        25.5749549366        4.8798281100       13.3242002987
  H        23.1660501394        7.7660625484       11.2357581619
  H        22.0438093961        5.9125176451        9.9875738812
  H        23.7816820561        5.7910832872       14.7976572950
  H        44.9535352585       34.3899903952        9.6948993799
  H        44.9017148202       34.2067051610        22.480534822438
  H        40.6658366580       33.2086475292       10.8530833671
  H        23.1500021865        1.9577118079        8.0043626442
  H        25.7164361713       19.6422187697        20.000684403838
  H        23.5698114238       19.6922837113        18.726323339638
  H        22.2870049362       16.1273097963        20.760674622438
  H        24.4455584739       16.0840593739        22.025950159138
  H        23.6915617532       17.6707352408        17.232167150338
  H        35.1289288693       15.4601060439        19.958292153838
  H        37.2633838315       15.3917708315        18.666604291138
  H        38.6932317187       18.7950858791        20.875183572738
  H        36.5601059853       18.8341093674        22.180135803038
  H        37.2184122245       17.3475053829        17.230953810338
  H        20.2978116212       17.9152659084        20.626815103838
  H        35.1910290425       15.3979494445       12.0296916419
  H        37.3194528018       15.3367598282       13.3281293518
  H        38.7030566360       18.8149301886       11.2102137324
  H        36.5640919936       18.8661327005        9.9152543625
  H        37.2300620793       17.3336010207       14.7913942859
  H        35.1659444569       26.6755426852       11.4090678631
  H        28.4934207780       21.0748857291        23.864126380438
  H        25.7540468254       19.6557926235       12.1343858592
  H        23.5670656485       19.7205607120       13.3504203126
  H        22.3015555486       16.1931060021       11.2413473613
  H        24.4908113582       16.1460441023       10.0273600764
  H        23.6904617389       17.6833753065       14.7905049657
  H        29.0216084953       21.7143325002        9.7275541049
  H        29.2299409437       21.6705087231        22.551292160838
  H        32.0894264497       18.6228652962       10.8800179266
  H        27.3660230048       19.0181643667        8.0655282574
  H        14.8585295892       19.6848511672       12.0899978903
  H        17.0308262643       19.7476663917       13.3209810005
  H        18.3050944055       16.2060980076       11.2403087188
  H        16.1296530433       16.1596749193       10.0077293492
  H        16.9072682180       17.7370559844       14.7882007225
  H        46.0861885965       15.4315106638       12.0565596162
  H        43.9594034324       15.3653667019       13.3591715499
  H        42.5452721563       18.8088371273       11.2033424485
  H        44.6720523164       18.8490521353        9.8893362000
  H        44.0158081096       17.3063137744       14.8241479222
  H        20.3040409715       17.9613432022       11.3939567954
  H        46.0413900807       15.3833389196        20.025872551738
  H        43.9118962483       15.3159474271        18.729366238938
  H        42.5191468903       18.7888325361        20.850605739338
  H        44.6548619956       18.8417551964        22.148995810338
  H        44.0040889860       17.2905968126        17.263021944238
  H        46.1985813197       26.6824790766        20.613066019038
  H        52.7412268962       21.0626090229        8.1945953951
  H        14.8601284415       19.6725879679        19.893334647638
  H        17.0510547596       19.7368312516        18.688373167038
  H        18.2891593888       16.1780102786        20.761289128238
  H        16.1015466066       16.1389515303        21.977910643138
  H        16.9077788981       17.7261270371        17.227219870238
  H        52.3223373073       21.6737516573        22.284641782538
  H        52.0134784084       21.7026402825        9.4953561230
  H        49.0672982770       18.6080297357        21.194104740738
  H        13.2470960054       19.0163100198        23.964781546438
  H        29.9580087816       12.4425659140       12.2157131090
  H        28.8902324041       10.5087519006       13.3921338180
  H        25.2497641343       11.2000763085       11.2103759639
  H        26.3347555184       13.1212153060       10.0316539720
  H        27.1689936312       11.6672070354       14.7864875855
  H        30.9916425221       22.7856540161       11.9928320282
  H        31.9950406971       24.6607970304       13.2958188654
  H        35.7047877316       24.1244207823       11.1864868063
  H        34.6804162282       22.2552890880        9.8773493942
  H        33.6434984540       23.5886581072       14.7638945940
  H        25.7164865714        8.5897966369       11.3954401340
  H        30.8793079096       22.6858575534        19.919761954038
  H        31.8854884296       24.5651305355        18.625122166538
  H        35.5241691723       24.1593302494        20.883752747738
  H        34.4987743248       22.2894671118        22.182885838538
  H        33.5868170776       23.5805464583        17.201965408938
  H        40.5944905178       17.0773462295        20.643084872638
  H        32.5101341885       14.1588967881        8.1653661557
  H        29.8877642702       12.4751745416        19.917395598338
  H        28.8416436658       10.5829911872        18.668872973738
  H        25.1663882407       11.2107947767        20.811342314238
  H        26.2302443384       13.0973421514        22.063998673138
  H        27.1469761316       11.6850505266        17.225798648238
  H        33.2987128482       14.2511720037        22.358234994238
  H        33.4116966708       14.3653016287        9.5271789454
  H        32.0316327173       18.4926493042        21.057005602938
  H        30.1956262731       14.1406889612        8.0732420653
  H        16.1179977417        2.9627577188       12.1294689754
  H        14.9523663306        4.8196260454       13.3221467516
  H        17.3653812514        7.6856253007       11.2104007571
  H        18.5145013735        5.8182768679       10.0106224386
  H        16.7526614711        5.7390201275       14.7714194130
  H        44.8278328380       32.1401488207       11.9770161201
  H        45.9370387855       30.3412249585       13.3065026458
  H        43.6821779976       27.3780717435       11.1523002493
  H        42.5995870174       29.1899901348        9.8096285550
  H        44.2299260689       29.4365663097       14.7688046024
  H        14.8499213046        8.5453556730       11.3632336605
  H        44.8998572985       32.2339057096        19.921789925138
  H        46.0246410137       30.4128045889        18.642190560738
  H        43.7626461818       27.4839881031        20.834708488938
  H        42.6449593343       29.3177223000        22.113803745338
  H        44.2680449992       29.4703516886        17.207899122938
  H        34.9936841276       26.6352704702        20.640582770138
  H        36.6052576889       35.1339468092        8.1806187969
  H        16.1432628279        3.0127275617        19.893986247038
  H        14.9735261523        4.8560532228        18.678315993038
  H        17.3959466595        7.7470469182        20.744565605138
  H        18.5430803719        5.8931449591        21.972186253338
  H        16.7640298344        5.7551258286        17.208982410238
  H        36.2788732543       34.4820326287        22.263238647338
  H        36.3808487141       34.2089615506        9.4995489557
  H        40.5787953157       33.2016390148        21.144195410838
  H        17.4706486589        1.9470960570        23.963805035338
  H        29.3012774013       19.5804583717       12.5371758435
  H        28.6037981472       18.7943033539        19.740884741138
  H        30.6790114043       15.4547332175        19.709676406638
  H        32.3138367933       16.5798800371       12.2376750331
  H        28.0889560564       18.3535570100       14.4057091201
  H        30.8643177754       15.3680759275       14.0457578836
  H        18.8537310112        0.8691326940       12.3351220821
  H        40.5282046039       35.2289351302        19.941966647338
  H        42.3231323201       34.4179861232        19.580666739838
  H        22.0875776635        0.6922739812       12.3513195529
  H        11.5967165024       18.7125638521       12.3827317247
  H        52.2647542949       18.4313886518        19.667576593838
  H        49.2547348089       16.4766022380        19.574173272638
  H        10.1498727175       15.7983623483       12.2928417809
  H        50.8498742474       17.6927742798        19.943717465538
  H        10.0457475376       17.3947265506       12.0519416551
  H        20.2151436497        0.0022846486       12.0419041041
  H        39.1837098823       36.1243762626        19.676181752538
 Ni        30.2738291553       17.5241854740        18.575848354038
 Ni        30.4822093020       16.4230080032        16.322530169938
 Ni        29.5050355969       18.4045001009        16.325000731538
 Ni        30.1812439535       17.5168172770       13.1604898096
  O        10.6498940669       14.3651853682        21.475566009138
  O        12.6130633728       14.6573662764        22.573676147638
  O        49.1476266093       16.8459402524        23.979527069238
  O        50.3500083148       20.9364477060        21.638108930038
  O        48.3484367021       20.5932423596        22.655780096138
  O        11.0508740533       17.0540744525        22.490394942938
  O        50.3207315972       20.8817370731       10.4069045276
  O        48.3466172129       20.5867074333        9.3270760236
  O        49.5432602955       18.2484637251       10.0684043034
  O        12.3586497548       18.6247218355        7.9998168701
  O        48.6931560948       14.1486315631        22.741062549838
  O         8.2098339477       14.2104209160        9.3225422443
  O        10.7352541164       14.5068001664       10.6643716417
  O        12.5716841563       14.5826527101        9.3285980509
  O        22.8440301855        2.0424966406        21.477271735338
  O        21.6041042715        3.5914177539        22.580434154538
  O        42.0579008421       34.1369967626        23.968815342438
  O        37.9813389112       33.1368097757        21.562250947238
  O        39.2171384107       31.5750952148        22.655379429338
  O        20.3083184660        1.0394399477        22.491598118938
  O        38.0241640878       33.1844286227       10.4159076786
  O        39.2181500060       31.5827102841        9.3276967090
  O        40.6520980802       33.7689710355       10.0602014382
  O        18.2555630057        1.3762552063        7.9968023440
  O        44.6222493588       35.1004970477        22.748578660838
  O        24.2054395997       -0.0000638735        9.3207867065
  O        22.7527431739        2.0569026355       10.5831490795
  O        21.6236318381        3.5950933932        9.3411920353
  O        27.3840350913       18.6966437339        21.553966200538
  O        26.6560731585       16.8509444668        22.661620834738
  O        30.6241849947       19.3478427675        23.984189541938
  O        33.5345530714       16.3404141044        21.570529472138
  O        34.2657316397       18.1682469509        22.718960096038
  O        29.5277363762       17.0059122883        22.568616967038
  O        33.5562142760       16.3410693666       10.4128385330
  O        34.2968395506       18.2388602877        9.3964162078
  O        31.6505837588       18.3206731667       10.0695912869
  O        30.2928562031       15.1064566533        8.0711500801
  O        28.5482146350       21.0249451266        22.817507254438
  O        28.5131480818       20.9525093135        9.4009455188
  O        27.4608869128       18.6794217462       10.6577991292
  O        26.6913619242       16.9270389700        9.4178976753
  O        13.1465195930       18.6939981664       10.5858813244
  O        13.9176721235       16.9158838824        9.4037627941
  O        50.5957309159       19.3503599876        8.0209966688
  O        47.6825587813       16.3271421832       10.4173235971
  O        46.9504642821       18.1757060730        9.3253290746
  O        11.0686663351       17.0160916115        9.4896548436
  O        47.6747827162       16.3359098958        21.642633336238
  O        46.9253397695       18.2359994340        22.653223646338
  O        49.5686645103       18.3178205375        21.972127849138
  O        10.3185877653       15.1001481681        7.9971254917
  O        52.6706810270       21.0280463914        9.2418113730
  O        12.1467954012       20.8914885208        22.663149583638
  O        13.1031224630       18.6143339347        21.316384478238
  O        13.9543959468       16.9861373568        22.655814356238
  O        29.9913922523       14.4432983592       10.7281500419
  O        28.0856499309       14.6505657270        9.4975122834
  O        32.0698072222       16.8537367885        8.0067925377
  O        30.9650108493       20.9505283749       10.4014400887
  O        32.9456210458       20.5965361123        9.3300539630
  O        29.5617144974       17.0663173992        9.5745287471
  O        30.8417824502       20.8764440389        21.638684399738
  O        32.8631019317       20.5825957874        22.649266182138
  O        31.6028559709       18.2445058156        21.893199793038
  O        28.2530618377       18.6229239131        8.0634094642
  O        32.4921138403       14.2135819003        9.2452589813
  O        32.4007649824       14.2208397146        22.728954280038
  O        29.9011557086       14.4326297735        21.411706962538
  O        28.0454248226       14.5767278533        22.727082326538
  O        17.8891455429        1.9664484644       10.6628502050
  O        18.9560477994        3.5271047924        9.4080907021
  O        39.1684698200       34.1385780388        7.9971770376
  O        43.2801679917       33.0588625063       10.3316822925
  O        42.0343403038       31.5064446458        9.2415770719
  O        20.3172484762        1.0361821954        9.4803830392
  O        43.2760596970       33.1824552828        21.564695543638
  O        42.0051827139       31.5840733102        22.572841080238
  O        40.5790625359       33.7749974030        21.925836327038
  O        22.3670857704        1.3842360283        7.9979544558
  O        36.6727755319       35.0996425696        9.2333273415
  O        16.4455758844        0.0641760319        22.658096928338
  O        17.9363840270        2.0432063980        21.316117720038
  O        18.9187515017        3.5931083067        22.655662441838
  O        29.5266485202       18.6318307746        20.008058787038
  O        29.8302016631       18.9734775946       11.9873286461
  O        31.0068749898       16.3306267554        19.985784543638
  O        31.3911991287       16.4037083496       11.9851602369
  O        30.4486330624       16.1323854807       14.4849624266
  O        29.0182204525       18.6054746280       14.5540205117
  O        39.4568367928       35.2437739219        19.991793724238
  O        19.1416759934        0.0046386054       11.9905077656
  O        41.9694378784       35.1724337065        20.076921858538
  O        21.6912827682       -0.0693362787       11.8959023018
  O        51.3646799012       18.6144047847        19.995006314238
  O        10.7509799693       18.7471706914       11.9051286495
  O        50.0791184397       16.4127071703        20.081554965838
  O         9.5240175347       16.4831879452       11.9912249201
 Zr         9.2967126950       16.0528824071        22.171988571738
 Zr        49.8361779309       16.0069802876        9.7466071773
 Zr        22.0731921624        0.0294524390        22.178983874738
 Zr        42.4607598533       35.1531933110        9.8007803323
 Zr        29.5350473156       19.0206358282        22.210910986238
 Zr        29.5697525193       19.1748577947        9.8145042859
 Zr        11.0374585226       19.0525158490        9.8280113616
 Zr        11.0431579869       19.1553214115        22.241201614438
 Zr        31.3376590492       16.0854686424        9.8320321483
 Zr        31.3404161011       16.0100188835        22.195427207038
 Zr        18.6008641589       -0.0020215755        9.7636618419
 Zr        18.5065392549       -0.0079581050        22.203294014038
 Zr        12.3006820173       16.3232196919        23.980662460238
 Zr        48.6160834577       18.8329779828        8.0103264209
 Zr        20.3143325207        2.4727574486        23.980436571138
 Zr        40.6426617990       32.6865792220        23.967927099438
 Zr        28.3190901387       16.3062075071        8.0920048278
 Zr        32.5974815083       18.8296109244        8.0142554766
  H        31.2342918537       16.6865405347        17.678093437438
  H        30.0615746168       18.8272376021        17.727803018838
