     572
 i =      270, E =     -4777.7021987470
  C        11.8588756938       14.0535505174        21.731275321538
  C        12.4563886624       12.8906703846        21.012953664138
  C        11.7045587245       12.1714495931        20.071617838838
  C        12.2809504822       11.1092483957        19.379283688438
  C        13.6216435913       10.7397230941        19.606771891638
  C        14.3549766418       11.4436252921        20.579863196338
  C        13.7820794508       12.5086094896        21.271347336338
  C        14.2611358833        9.6490130021        18.833404068238
  C        14.2563553528        9.6568650639        17.411708734438
  C        13.7431445480       10.7589817719        16.657826565838
  C        49.1270078137       21.2331919738        21.869417950238
  C        48.5502898735       22.4012203340        21.142346941738
  C        49.3002665628       23.0684600743        20.161267079138
  C        48.7333308912       24.1076461609        19.428116624138
  C        47.4028494968       24.5093752546        19.656890236738
  C        46.6719562033       23.8605862324        20.670497864238
  C        47.2344097642       22.8156415674        21.399787667238
  C        46.7725197313       25.5870161080        18.859610046638
  C        46.7613014687       25.5573413256        17.437850809138
  C        47.2612577287       24.4422533482        16.694358878538
  C        14.8603007161        8.5705397522        16.698438124138
  C        14.8919897730        8.5971211565        19.510057438238
  C        49.1133485742       21.2034376275       10.1454022733
  C        48.5279439659       22.3648411439       10.8725936630
  C        49.2670987478       23.0254889299       11.8655910147
  C        48.6907393782       24.0600366335       12.5970605317
  C        47.3603744540       24.4568949953       12.3587149316
  C        46.6400680071       23.8121225485       11.3350267952
  C        47.2136588123       22.7762274228       10.6032482665
  C        46.7218422876       25.5318368399       13.1497192815
  C        46.7334350100       25.5281063431       14.5714263132
  C        47.2489323633       24.4289178327       15.3278065590
  C        40.6369910463       17.1632761003       15.3221263628
  C        40.6579727941       17.1872878358       12.5133570299
  C        11.8831048165       14.0865676812       10.2855639733
  C        12.4724934127       12.9108988116       10.9899004978
  C        11.7148696135       12.1774277324       11.9157162226
  C        12.2814919756       11.0949725012       12.5840924201
  C        13.6204290845       10.7215131887       12.3525152753
  C        14.3585261758       11.4373701775       11.3920359618
  C        13.7930739523       12.5185386796       10.7193646539
  C        14.2539977819        9.6246942564       13.1228630562
  C        14.2525537755        9.6445641545       14.5446995728
  C        13.7426338037       10.7534840754       15.2917828597
  C        22.5126959160        3.2441487374        21.743266029238
  C        23.2295449427        4.3480902343        21.044529615838
  C        24.2264121192        4.0654671737        20.098924688238
  C        24.8561552994        5.1032806559        19.416968828138
  C        24.5047550560        6.4458671260        19.660453476638
  C        23.5362725503        6.7200053465        20.643302968038
  C        22.9017860155        5.6839868893        21.323707685638
  C        25.1128762646        7.5506913232        18.884472798538
  C        25.0840266784        7.5436743153        17.463060093338
  C        24.3790293021        6.5459732018        16.717458261838
  C        38.2989501708       31.9285357439        21.841593691538
  C        37.5594633732       30.8396102599        21.138992522738
  C        36.5953699123       31.1461555393        20.166297430538
  C        35.9677129339       30.1278736668        19.453971720138
  C        36.2889985916       28.7770793800        19.691645298538
  C        37.2223509708       28.4778662682        20.702038954938
  C        37.8540620162       29.4951613701        21.413567227938
  C        35.6812265613       27.6884133966        18.892211292638
  C        35.7223397943       27.7031863962        17.470634627938
  C        36.4357833891       28.7036802338        16.737731758538
  C        25.7081121085        8.6127438171        16.742877262038
  C        25.7125105953        8.6242088523        19.555031358638
  C        38.3308816433       31.9617051908       10.1595631361
  C        37.6144719310       30.8887247580       10.9085372248
  C        36.6831041004       31.1984508524       11.9115632629
  C        36.0742767478       30.1812634116       12.6444958867
  C        36.3821190042       28.8281787645       12.3982281357
  C        37.2940361437       28.5283053296       11.3675917300
  C        37.9047921388       29.5420331719       10.6359224777
  C        35.7686469256       27.7297184077       13.1802796262
  C        35.7667846065       27.7245091103       14.6026790226
  C        36.4557916160       28.7146830202       15.3712947887
  C        46.1353822728       26.6207195995       15.2815674677
  C        46.0879233235       26.5802226312       12.4736672105
  C        22.4610117265        3.2559432754       10.2578910474
  C        23.1552393777        4.3641323925       10.9810863025
  C        24.1573546583        4.0772911441       11.9217181748
  C        24.7857013674        5.1068111860       12.6181859057
  C        24.4323106289        6.4530337434       12.3967294064
  C        23.4533578771        6.7331125975       11.4245129178
  C        22.8203151289        5.7038344082       10.7285092717
  C        25.0642525839        7.5503648791       13.1711057194
  C        25.0595667496        7.5429284871       14.5939609706
  C        24.3656911764        6.5465611065       15.3508364306
  C        26.6240578107       17.8624238334        21.773566961338
  C        25.3152474165       17.9060106884        21.049164698038
  C        25.0585035382       18.8962953469        20.087977457138
  C        23.8453749270       18.9150547764        19.401860953138
  C        22.8522992347       17.9464806226        19.654285251038
  C        23.1059595375       16.9785818611        20.644451053538
  C        24.3209361804       16.9546705687        21.328351504838
  C        21.5788754838       17.9300536944        18.889819556738
  C        21.5781545979       17.9040626528        17.467225315338
  C        22.7832737285       17.7772126611        16.706458457438
  C        34.4396744217       17.1948220519        21.909567714638
  C        35.7312990023       17.1521341887        21.161030652838
  C        35.9381211065       16.1904904149        20.159833708638
  C        37.1178811349       16.1866638210        19.420749250338
  C        38.1237811851       17.1414246113        19.666598492438
  C        37.9198436818       18.0831224750        20.692594354238
  C        36.7362039849       18.0938942258        21.426675681338
  C        39.3793486856       17.1550353574        18.883436531238
  C        39.3771500114       17.1786322538        17.462442879238
  C        38.1715148687       17.3084529785        16.703490679038
  C        20.3315856786       17.9215238732        16.758500300238
  C        20.3537004409       17.9355065396        19.571728839338
  C        34.4786722043       17.2477245099       10.1785312694
  C        35.7821752344       17.1799694210       10.9032461052
  C        35.9988738533       16.1998809258       11.8829428160
  C        37.1840555256       16.1886859995       12.6129482383
  C        38.1804966521       17.1563342076       12.3806406610
  C        37.9704580242       18.1114476879       11.3690153087
  C        36.7825343935       18.1281483252       10.6429416265
  C        39.4266068168       17.1786973704       13.1765980967
  C        39.4013972235       17.1911511403       14.5971406249
  C        38.1828546078       17.3122568898       15.3369873074
  C        35.1280728422       26.6473529210       15.3027076672
  C        35.1822863308       26.6589667821       12.4932315180
  C        26.5728306272       17.8270873444       10.3244745184
  C        25.2565504961       17.8708457481       11.0306444185
  C        24.9905716945       18.8751234303       11.9736007862
  C        23.7732146017       18.8976400280       12.6487596150
  C        22.7919506503       17.9162506987       12.4034759065
  C        23.0518947634       16.9373082421       11.4274968065
  C        24.2703714713       16.9123992577       10.7514019774
  C        21.5283789595       17.8958005764       13.1767558989
  C        21.5523110425       17.8850771340       14.5982591298
  C        22.7707239901       17.7681970977       15.3401850875
  C        14.0468697866       17.8283367278       10.2893192310
  C        15.3508551390       17.8837439209       11.0152099161
  C        15.6077074279       18.8845646124       11.9653460230
  C        16.8165431443       18.9031972554       12.6585893085
  C        17.8030094038       17.9238925214       12.4240317184
  C        17.5509538749       16.9475718505       11.4416338841
  C        16.3415834910       16.9242133192       10.7500539547
  C        19.0721670419       17.9048210372       13.1929126873
  C        19.0710550926       17.9006296201       14.6154220749
  C        17.8642318609       17.8017741773       15.3769797592
  C        46.8074325887       17.2206971991       10.1596400163
  C        45.5201168677       17.1663434460       10.9086542196
  C        45.3133070409       16.1947008117       11.8996664663
  C        44.1336044710       16.1864593039       12.6387962485
  C        43.1327814249       17.1498881244       12.4071553224
  C        43.3370770101       18.1013656194       11.3900164594
  C        44.5173857252       18.1137378819       10.6523819328
  C        41.8803833073       17.1699149735       13.1946155926
  C        41.8847701738       17.1718812212       14.6160088511
  C        43.0930067989       17.2627032157       15.3763778989
  C        20.3179457163       17.9109067104       15.3235711482
  C        20.2962408301       17.8856169291       12.5103529727
  C        46.7861363203       17.2311460764        21.880378013638
  C        45.4817917059       17.1276718642        21.167465388538
  C        45.2615343509       16.1348350837        20.201098441238
  C        44.0731477099       16.1147926218        19.475414583638
  C        43.0767915676       17.0843929318        19.700085373838
  C        43.2863651728       18.0451781761        20.706619445138
  C        44.4759450547       18.0719444714        21.426868499138
  C        41.8325006729       17.1170829228        18.901549175338
  C        41.8604856616       17.1432235507        17.481120896638
  C        43.0814940296       17.2466255552        16.742765448038
  C        46.1532014707       26.6371874668        16.716119553838
  C        46.1626391289       26.6561703916        19.525751411738
  C        14.0460193030       17.8317119270        21.698520102738
  C        15.3672468507       17.9056948791        21.008592356538
  C        15.6406537006       18.9189650879        20.077599604738
  C        16.8699415113       18.9552761922        19.423186929838
  C        17.8538025006       17.9775135156        19.673827883438
  C        17.5874250526       16.9937004584        20.643459857438
  C        16.3601225584       16.9567333718        21.301248055138
  C        19.1211046741       17.9506969060        18.904813216138
  C        19.0965486084       17.9228922974        17.483388437338
  C        17.8767080011       17.8117907643        16.742971888838
  C        28.8102854487       14.0932781255       10.3921509600
  C        28.1964520968       12.9186509590       11.0797435756
  C        28.9232657318       12.1705420957       12.0176262773
  C        28.3246323948       11.0950368917       12.6693107502
  C        26.9851122022       10.7434781158       12.4065752979
  C        26.2798131050       11.4717550553       11.4319318769
  C        26.8763599565       12.5475312452       10.7788355155
  C        26.3176906201        9.6624027055       13.1677816917
  C        26.3097872082        9.6863272938       14.5888809271
  C        26.8187049595       10.7967013555       15.3347892814
  C        32.1808604432       21.2422817432       10.1417524337
  C        32.7775927911       22.4087694831       10.8629364734
  C        32.0245662754       23.0954046382       11.8278737914
  C        32.5942528565       24.1343382479       12.5581958733
  C        33.9333331325       24.5153562859       12.3448966587
  C        34.6695096840       23.8472447817       11.3483858539
  C        34.1016740095       22.8028697002       10.6199944217
  C        34.5597130441       25.5907911122       13.1484778242
  C        34.5397487964       25.5646949693       14.5701745977
  C        34.0206185926       24.4524511466       15.3054620901
  C        25.6998971286        8.6088863083       15.3081553861
  C        25.6784351432        8.6131690234       12.4947089931
  C        32.0810500427       21.2044293073        21.867842887638
  C        32.6530064885       22.3664009360        21.122108226938
  C        31.9174732812       23.0215151318        20.122410914138
  C        32.4920022046       24.0595373475        19.390344005838
  C        33.8158423225       24.4733172268        19.639447034638
  C        34.5327156417       23.8318499830        20.667801957338
  C        33.9634465642       22.7899084181        21.394673927938
  C        34.4570918140       25.5585155918        18.859990816838
  C        34.4858535854       25.5487515362        17.438075459438
  C        33.9938193409       24.4454668927        16.671793094638
  C        40.6244162151       17.1526362795        16.755880414738
  C        40.6011207383       17.1409889320        19.565207633838
  C        28.7475708135       14.0677815074        21.811185784438
  C        28.1384828408       12.9187882550        21.073427477238
  C        28.8774642187       12.2210868362        20.106011723638
  C        28.2992666779       11.1636737778        19.407292459238
  C        26.9657088989       10.7777167563        19.650890342338
  C        26.2436466103       11.4633309140        20.645514453438
  C        26.8205982779       12.5211231999        21.346090253938
  C        26.3254615066        9.6862676544        18.877725765838
  C        26.3150833464        9.6986134771        17.455828297238
  C        26.8191138922       10.8038799451        16.700644952038
  C        18.1354349631        3.1810399478       10.3171690812
  C        17.4061580545        4.2782717172       11.0157056132
  C        16.3904330365        3.9999611890       11.9432325720
  C        15.7427196259        5.0399538447       12.6067028049
  C        16.0947245944        6.3836678233       12.3670664816
  C        17.0842148293        6.6531641421       11.4034038084
  C        17.7332716392        5.6157893726       10.7383679622
  C        15.4704068102        7.4913484044       13.1301367696
  C        15.4855877561        7.4905924151       14.5518466236
  C        16.1871150665        6.4969639261       15.3050221991
  C        42.9458293034       31.8595879207       10.0728916138
  C        43.6462040588       30.7718664377       10.8168412887
  C        44.5914693715       31.0932178866       11.8031539289
  C        45.1971645975       30.0876702849       12.5508347604
  C        44.8710048870       28.7345772102       12.3357525046
  C        43.9454954989       28.4202202796       11.3222438969
  C        43.3366946927       29.4253556679       10.5741740683
  C        45.4885637703       27.6552666871       13.1389474010
  C        45.4926367497       27.6808270140       14.5606467639
  C        44.8055153577       28.6888408077       15.3072890293
  C        14.8565600209        8.5630388355       15.2642197885
  C        14.8752426025        8.5631935780       12.4515657209
  C        42.9464717096       31.9616874398        21.798778970338
  C        43.6917636683       30.8855303095        21.085345752638
  C        44.6561957841       31.1914392612        20.112884432938
  C        45.2777334063       30.1718482645        19.395167840738
  C        44.9541785453       28.8215120474        19.632998529238
  C        44.0209763521       28.5238487754        20.644045302638
  C        43.3926872617       29.5406165399        21.356210096038
  C        45.5631665638       27.7240961304        18.847732829838
  C        45.5332402955       27.7173339202        17.426436515338
  C        44.8268344225       28.7075007820        16.673475657238
  C        35.1029541601       26.6380812658        16.737791591838
  C        35.0663006864       26.6156987220        19.548033307838
  C        18.1486353988        3.2470744293        21.696382124638
  C        17.4300985687        4.3438639215        20.987093361838
  C        16.4147685737        4.0526009278        20.063638057638
  C        15.7665057548        5.0832494617        19.388251572938
  C        16.1212928729        6.4284706338        19.610891909538
  C        17.1128212263        6.7118351667        20.567995165538
  C        17.7604725364        5.6829175412        21.247767024938
  C        15.4907741239        7.5241649012        18.838468373638
  C        15.4965628603        7.5074733162        17.417336201238
  C        16.1933314100        6.5057819432        16.670626366238
  H        10.6723326794       12.4653557895        19.894801588838
  H        11.6946080473       10.5505090783        18.652985677338
  H        15.3921434876       11.1693586866        20.761306816338
  H        14.3517116499       13.0721585560        22.006394830038
  H        13.3761398686       11.6311003021        17.191151055838
  H        50.3229579737       22.7483718691        19.976490646738
  H        49.3198189726       24.6228754613        18.670514952438
  H        45.6425337059       24.1615181152        20.853806083538
  H        46.6634934597       22.2904862025        22.162015973438
  H        47.6299367922       23.5759321616        17.236042397938
  H        14.8725126870        8.5884673897        20.598365543138
  H        50.2871148613       22.7025856835       12.0605778600
  H        49.2691138311       24.5754601756       13.3606020851
  H        45.6107411793       24.1095330686       11.1457842107
  H        46.6529547642       22.2541653149        9.8315254125
  H        47.6078015938       23.5518458768       14.7968914123
  H        40.6653713353       17.1513598435       11.4256852824
  H        48.6871255684       14.0949824599        23.789827351138
  H        10.6813024360       12.4662827472       12.0929060767
  H        11.6896537239       10.5243362417       13.2965514537
  H        15.3940872240       11.1598015911       11.2063715712
  H        14.3655712002       13.0882006757        9.9911898267
  H        13.3758538436       11.6221154280       14.7531454458
  H        47.9302756064       14.2183215907        9.7109617698
  H        47.7801251488       14.3737888646        22.485052660438
  H        49.0848048647       18.5528586628       10.8676704339
  H        10.4163808706       14.1342444546        7.9987155144
  H        24.4852357811        3.0262403634        19.908783012938
  H        25.6292086969        4.8840242305        18.683666501638
  H        23.2579523320        7.7537131542        20.837693883238
  H        22.1318215152        5.8863102848        22.064227919738
  H        23.8173485463        5.7898466106        17.258191354738
  H        36.3630351228       32.1901991707        19.970025625238
  H        35.2210533055       30.3701605839        18.700879334438
  H        37.4782719052       27.4378210607        20.893664312938
  H        38.6004950547       29.2710782733        22.172017133038
  H        36.9981464363       29.4527677385        17.287485260638
  H        25.7476858164        8.6072099097        20.642838088338
  H        36.4558935465       32.2427853162       12.1135320835
  H        35.3454743274       30.4279198745       13.4134364024
  H        37.5450725835       27.4880743702       11.1709519574
  H        38.6299129671       29.3147437835        9.8582560477
  H        37.0344410275       29.4719503201       14.8500364244
  H        46.1095165855       26.5877167482       11.3856320248
  H        44.6683748111       35.1162371780        23.803726713938
  H        24.4346614429        3.0388896401       12.0884866193
  H        25.5664755590        4.8772406393       13.3401652752
  H        23.1690048711        7.7678347854       11.2442531153
  H        22.0487589117        5.9175583336        9.9924304708
  H        23.7931568639        5.7914989046       14.8199962759
  H        44.9540337599       34.3905670717        9.6952919496
  H        44.9020132509       34.2068668067        22.480477679438
  H        40.6665822988       33.2095339820       10.8533933666
  H        23.1504274282        1.9579914651        8.0053986710
  H        25.8234666431       19.6450276865        19.894653907338
  H        23.6511702001       19.6899780022        18.663288269038
  H        22.3517440230       16.2212757856        20.848709335938
  H        24.5272956464       16.1935496657        22.077295876938
  H        23.7233611280       17.6572575406        17.237018997238
  H        35.1592380244       15.4546524877        19.973779164038
  H        37.2790563126       15.4328391061        18.653113567038
  H        38.6894209970       18.8276117354        20.886103700838
  H        36.5608325460       18.8346168423        22.203511080138
  H        37.2331673976       17.4336745983        17.236040758638
  H        20.3605659780       17.9793518460        20.659451177138
  H        35.2190609550       15.4642716124       12.0662627234
  H        37.3532284475       15.4256645540       13.3696689538
  H        38.7348069319       18.8638643156       11.1858216172
  H        36.5963220799       18.8823431161        9.8819076679
  H        37.2532720838       17.4389214364       14.7896004009
  H        35.1636192824       26.6840312243       11.4053199371
  H        28.5068548273       21.0751260846        23.948668133038
  H        25.7506874070       19.6310416556       12.1580105922
  H        23.5663904786       19.6807280541       13.3750799903
  H        22.3024454385       16.1730805220       11.2318584204
  H        24.4873820933       16.1451213283       10.0120239239
  H        23.7011951076       17.6412520413       14.7949086823
  H        29.0036860739       21.7217432065        9.7588285242
  H        29.1672421407       21.7380432707        22.613143062038
  H        32.1101219590       18.5701165298       10.9679176772
  H        27.4013935399       19.0655350729        8.0751908842
  H        14.8496310375       19.6435733775       12.1452490622
  H        17.0118355434       19.6855616809       13.3888578522
  H        18.3020906566       16.1837383530       11.2510823340
  H        16.1357414929       16.1569720956       10.0074823770
  H        16.9216150698       17.6856235561       14.8500458481
  H        46.0937987650       15.4600500183       12.0833157322
  H        43.9718373528       15.4255484484       13.3991086269
  H        42.5714093864       18.8527300509       11.2084482709
  H        44.6934888318       18.8621667819        9.8834026365
  H        44.0355336493       17.3760888085       14.8483695692
  H        20.2901405573       17.9170275405       11.4222650908
  H        46.0374696678       15.3946035451        20.019610431038
  H        43.9044854107       15.3456293512        18.724870580238
  H        42.5210023625       18.7972414846        20.886481490438
  H        44.6609806198       18.8334049718        22.180460459638
  H        44.0152479473       17.3464257036        17.288542901338
  H        46.1996951468       26.6828211509        20.613189417138
  H        52.7413315110       21.0626742573        8.1947238019
  H        14.8799276493       19.6718535100        19.883362455938
  H        17.0808280448       19.7438697492        18.704049651638
  H        18.3384270526       16.2326354305        20.845157783438
  H        16.1393425250       16.1839596053        22.033523731838
  H        16.9434492543       17.7032420570        17.287327730638
  H        52.3228531827       21.6734018617        22.283909189838
  H        52.0134543563       21.7022003126        9.4956594282
  H        49.0680429562       18.6078323155        21.193764276938
  H        13.2479315467       19.0158876507        23.967237701138
  H        29.9559438989       12.4459768906       12.2199736453
  H        28.8898229097       10.5132898384       13.3943454041
  H        25.2448244549       11.2099871572       11.2216308382
  H        26.3301652825       13.1308824060       10.0415754838
  H        27.1832654174       11.6641740105       14.7930534886
  H        30.9952600966       22.7891225397       11.9988339388
  H        32.0042167038       24.6665996041       13.3012013137
  H        35.7058705301       24.1315747062       11.1775272788
  H        34.6754331472       22.2617550282        9.8709437094
  H        33.6661174776       23.5856871271       14.7551206757
  H        25.7052397887        8.5956573695       11.4065920892
  H        30.8969230284       22.7005120666        19.925739175638
  H        31.9131888690       24.5687362635        18.622705577238
  H        35.5572128287       24.1391923908        20.867492907138
  H        34.5233287351       22.2736462679        22.170925375038
  H        33.6189217012       23.5726276653        17.198475140038
  H        40.5921244116       17.0939866152        20.652481678138
  H        32.5076693838       14.1484234915        8.2537342542
  H        29.9064563028       12.5217559974        19.921813070838
  H        28.8803235081       10.6176657265        18.667146458938
  H        25.2117762444       11.1782738578        20.840361848038
  H        26.2601838823       13.0662446370        22.101996745938
  H        27.1829648056       11.6767966092        17.234644679838
  H        33.3110678962       14.2307859839        22.459514273338
  H        33.4097090698       14.4109634627        9.5978763597
  H        32.1134376702       18.5150327781        21.170913230538
  H        30.2178020965       14.1915961349        8.0727532450
  H        16.1182538460        2.9634868731       12.1295711174
  H        14.9532125005        4.8206318617       13.3223155970
  H        17.3667918781        7.6860140617       11.2103650904
  H        18.5153792588        5.8184592089       10.0106066748
  H        16.7537833078        5.7397084368       14.7715263038
  H        44.8275759594       32.1403173550       11.9774922544
  H        45.9368733025       30.3414670760       13.3069201269
  H        43.6831303107       27.3781097512       11.1518511265
  H        42.6003940893       29.1900137887        9.8091960211
  H        44.2301837220       29.4366436597       14.7690065125
  H        14.8516581478        8.5465636118       11.3633432199
  H        44.8995783785       32.2341344439        19.921288458738
  H        46.0245137015       30.4131139606        18.641816558038
  H        43.7643160781       27.4840890249        20.835867579138
  H        42.6464134249       29.3178200530        22.114885925438
  H        44.2683927038       29.4704230409        17.208080201738
  H        35.0170925590       26.6280765709        20.635256378238
  H        36.6052886923       35.1340936147        8.1806493705
  H        16.1435774374        3.0130431526        19.893986409838
  H        14.9740930463        4.8564729153        18.678246424738
  H        17.3965255603        7.7472702420        20.744749031338
  H        18.5435172797        5.8933837007        21.972340248638
  H        16.7648616616        5.7556071685        17.209053470538
  H        36.2787810763       34.4824115673        22.262890671138
  H        36.3810404795       34.2090369943        9.4994223261
  H        40.5795915700       33.2022634892        21.143516089438
  H        17.4710029353        1.9474465496        23.963875556638
  H        29.0811432045       19.3543212594       12.5053258825
  H        29.7989319515       19.6516357974        19.556478970038
  H        31.9162772144       15.7481749006        19.563745474238
  H        31.2731189150       15.5685217904       12.4980059708
  H        28.0751799022       18.0652304081       14.6666028239
  H        29.4621267605       15.1977480295       14.5216886466
  H        31.6773156224       20.0458848156        17.508964040438
  H        33.1504623837       16.8949420528        17.444432270538
  H        28.8656818434       16.8195342797        17.274834645038
  H        32.3172537407       18.3644073485       14.8479240805
  H        18.8539153458        0.8692421460       12.3352061527
  H        40.5283193812       35.2290406203        19.941789794338
  H        42.3241937212       34.4189831299        19.580045683338
  H        22.0876598137        0.6921771133       12.3514727217
  H        11.5969432662       18.7127584855       12.3825818329
  H        52.2648745471       18.4311473899        19.666886194438
  H        49.2546450727       16.4770467037        19.574548341938
  H        10.1496446139       15.7982325560       12.2930433816
  H        50.8500574618       17.6924968714        19.943968504838
  H        10.0459556228       17.3944943244       12.0519213222
  H        20.2154138979        0.0024460870       12.0418646820
  H        39.1840538720       36.1248463191        19.676426472838
 Ni        30.9414322280       17.7239537640        18.739865804238
 Ni        31.1562018389       16.3201665131        16.068751897338
 Ni        30.0130316678       18.8905123160        15.990709522038
 Ni        30.2670785786       17.5182666125       13.2440529541
  O        10.6499784086       14.3650648033        21.475611146338
  O        12.6131887336       14.6574811693        22.573698141438
  O        49.1481587654       16.8458217865        23.979487968738
  O        50.3503515771       20.9357692732        21.637765691838
  O        48.3486046284       20.5933842239        22.655649685338
  O        11.0519054261       17.0537510150        22.490474764738
  O        50.3210864209       20.8816804857       10.4068502257
  O        48.3467585707       20.5868715457        9.3271704009
  O        49.5438758880       18.2483885261       10.0682229679
  O        12.3592140375       18.6246632214        7.9997357212
  O        48.6932804419       14.1485597566        22.741094705338
  O         8.2099117826       14.2103826566        9.3225178563
  O        10.7354094646       14.5067593737       10.6643447635
  O        12.5718278393       14.5827897016        9.3284850425
  O        22.8444499483        2.0426665365        21.477123387538
  O        21.6057348789        3.5923154901        22.579249106538
  O        42.0581630429       34.1373789228        23.968757253338
  O        37.9813048339       33.1368700936        21.562243017438
  O        39.2174571563       31.5752719375        22.655857321638
  O        20.3084413147        1.0395837046        22.491964327538
  O        38.0246631837       33.1854840182       10.4155462014
  O        39.2187638283       31.5833158220        9.3270644016
  O        40.6522428901       33.7693326335       10.0601469527
  O        18.2555730915        1.3761414392        7.9967457237
  O        44.6222314796       35.1005420458        22.748556064638
  O        24.2054034919        0.0000001976        9.3207534237
  O        22.7530129037        2.0576619064       10.5837953128
  O        21.6245458864        3.5961263361        9.3428826457
  O        27.4972449868       18.7530330328        21.486028731038
  O        26.7658020400       16.9336538617        22.643799465238
  O        30.6642454045       19.4009897818        8.0552839669
  O        33.5903013318       16.2732552573        21.656952775338
  O        34.2757625532       18.1681472929        22.723766731638
  O        29.5764029894       17.0604086313        22.564520936038
  O        33.6236791698       16.3294269346       10.4098584156
  O        34.3059390903       18.2486285227        9.4047916888
  O        31.6563895219       18.3139447813       10.1490577482
  O        30.3222955437       15.1569367258        8.0850191490
  O        28.5543427286       21.0315232516        22.883970023338
  O        28.5128661529       20.9575029100        9.4121001321
  O        27.4581246661       18.6785313779       10.6601241696
  O        26.6942792863       16.9286102344        9.4130886339
  O        13.1490120779       18.6927936201       10.5875341866
  O        13.9193453528       16.9161894909        9.4049850806
  O        50.5966369062       19.3503008740        8.0204522205
  O        47.6836070061       16.3269954437       10.4172844960
  O        46.9528046336       18.1761777790        9.3237847209
  O        11.0700141306       17.0154204348        9.4896286682
  O        47.6759834165       16.3355470328        21.642793699838
  O        46.9284536649       18.2358747981        22.655172764338
  O        49.5689421325       18.3177071292        21.972096002238
  O        10.3187130761       15.1000630798        7.9970754838
  O        52.6708078014       21.0278736425        9.2418268479
  O        12.1468483697       20.8912032990        22.663055573938
  O        13.1083961199       18.6135935460        21.315370876338
  O        13.9571884066       16.9870587383        22.655234188838
  O        29.9937061362       14.4433061494       10.7329046192
  O        28.0894373870       14.6534991608        9.4955171177
  O        32.1393078804       16.8527618086        8.0777816130
  O        30.9675448198       20.9556007645       10.4070728960
  O        32.9485027412       20.6025488805        9.3378424671
  O        29.5687527805       17.0743593546        9.5763225463
  O        30.8543274122       20.8944661055        21.647173806038
  O        32.8718885708       20.5871176749        22.653217723838
  O        31.6862745146       18.2489164418        21.999627640838
  O        28.2894625518       18.6733444187        8.0735026332
  O        32.4931052968       14.2130858186        9.3299455839
  O        32.4058985188       14.2147082288        22.813151385338
  O        29.9191516021       14.4378443262        21.481112307338
  O        28.0387633428       14.5894431212        22.743148731638
  O        17.8892542904        1.9666241217       10.6628152804
  O        18.9562475235        3.5271511274        9.4079879081
  O        39.1686021079       34.1386981074        7.9971791845
  O        43.2801910115       33.0589636642       10.3316827544
  O        42.0344354117       31.5064562892        9.2416089802
  O        20.3177183101        1.0368288148        9.4800777119
  O        43.2761120288       33.1825995222        21.564708408038
  O        42.0052440491       31.5841065774        22.572760783738
  O        40.5789241459       33.7749864372        21.925588749238
  O        22.3673756216        1.3846528050        7.9979420499
  O        36.6727902130       35.0997496385        9.2333000337
  O        16.4456568050        0.0642506246        22.658047006438
  O        17.9365222916        2.0433895026        21.316158415138
  O        18.9190790090        3.5931153684        22.655738404638
  O        29.9068461428       18.8314735748        20.070770304938
  O        29.8234556567       18.9745803747       11.9954178142
  O        31.3447872062       16.3431190885        20.082619758038
  O        31.3801003271       16.4086770381       12.0099260463
  O        32.2494297544       16.5647445420        17.583461199238
  O        29.7408603719       17.2262214979        17.160780061238
  O        30.2537951428       15.7551421446       14.4756676244
  O        31.4344048151       17.9617666994       14.8994937792
  O        30.8854400464       19.4908318075        17.575497933738
  O        28.8979925077       18.5440368567       14.4812444519
  O        39.4569843118       35.2440568174        19.991746883038
  O        19.1418421878        0.0047669385       11.9904900268
  O        41.9694897035       35.1725738325        20.076864963438
  O        21.6912727978       -0.0693226698       11.8959097683
  O        51.3650745414       18.6142548143        19.995152144738
  O        10.7511903517       18.7471147625       11.9049413020
  O        50.0792000997       16.4127682559        20.081563657238
  O         9.5239847505       16.4831669510       11.9912381616
 Zr         9.2976677442       16.0526535526        22.172327265038
 Zr        49.8370457472       16.0065455164        9.7462329812
 Zr        22.0734403942        0.0302609525        22.178625538638
 Zr        42.4610983230       35.1539428475        9.8009437584
 Zr        29.6032915365       19.0782424647        22.245073294238
 Zr        29.5827787533       19.1783221979        9.8516198315
 Zr        11.0387993808       19.0517458203        9.8278450313
 Zr        11.0447355619       19.1546560485        22.240631951938
 Zr        31.3551469633       16.1048688908        9.8722185522
 Zr        31.3874719545       16.0113362154        22.262200446938
 Zr        18.6013588223       -0.0008560527        9.7633668273
 Zr        18.5068046679       -0.0072864042        22.203472847738
 Zr        12.3029582818       16.3235717285        23.980078028338
 Zr        48.6178158584       18.8333522878        8.0101894145
 Zr        20.3155497355        2.4741358324        23.980321860738
 Zr        40.6436154140       32.6874676695        23.967796549538
 Zr        28.3452111169       16.3414686377        8.0822832024
 Zr        32.6240485586       18.8325716275        8.0537013948
