     573
 i =      209, E =     -4762.8490171627
  C        11.8588070495       14.0534951797        21.731259473238
  C        12.4563566084       12.8906705388        21.012804499738
  C        11.7047417010       12.1718880403        20.070955861638
  C        12.2811321934       11.1097488940        19.378504100138
  C        13.6216761074       10.7398177227        19.606274084138
  C        14.3547855492       11.4433037956        20.579865057638
  C        13.7818914159       12.5082234733        21.271470570738
  C        14.2611411303        9.6490524735        18.832922407838
  C        14.2562059566        9.6566445229        17.411203064238
  C        13.7429927617       10.7586270276        16.657124198338
  C        49.1268639977       21.2332326912        21.869424700538
  C        48.5501160475       22.4011573058        21.142308206238
  C        49.3001479667       23.0684762326        20.161312508638
  C        48.7332193116       24.1076187712        19.428108787838
  C        47.4026682988       24.5092405648        19.656705604538
  C        46.6716956336       23.8603411378        20.670188953338
  C        47.2341441799       22.8154349803        21.399537968438
  C        46.7723982782       25.5869537307        18.859471229038
  C        46.7613713632       25.5574122794        17.437709427638
  C        47.2613492262       24.4423895514        16.694139535738
  C        14.8599382105        8.5701127009        16.698030323438
  C        14.8919587836        8.5971828157        19.509689619338
  C        49.1132210261       21.2035245363       10.1453696429
  C        48.5278756771       22.3649930267       10.8724460963
  C        49.2670641986       23.0257438908       11.8653669692
  C        48.6907180694       24.0603614395       12.5967446971
  C        47.3603034010       24.4571514769       12.3585054735
  C        46.6399549662       23.8122085362       11.3349529548
  C        47.2135103110       22.7762441876       10.6032376552
  C        46.7217881629       25.5320907367       13.1495608649
  C        46.7335558349       25.5283942861       14.5712747166
  C        47.2490337451       24.4291481351       15.3275878336
  C        40.6339617086       17.1452491799       15.3225780954
  C        40.6543615227       17.1766708734       12.5136451932
  C        11.8829184123       14.0863173979       10.2854263202
  C        12.4719575144       12.9101949630       10.9894167682
  C        11.7143102629       12.1770630402       11.9154979829
  C        12.2805989661       11.0943292243       12.5837383471
  C        13.6192667843       10.7201050258       12.3517665707
  C        14.3573324695       11.4355500039       11.3909287880
  C        13.7922101990       12.5170192134       10.7184192255
  C        14.2526639118        9.6232150036       13.1222517366
  C        14.2517101518        9.6435671134       14.5441100970
  C        13.7421881539       10.7527640779       15.2910636756
  C        22.5123837156        3.2444796517        21.742918398738
  C        23.2285090572        4.3489379822        21.043745196438
  C        24.2252802255        4.0671590395        20.097814168838
  C        24.8541559068        5.1055249733        19.415764269338
  C        24.5021046470        6.4478936292        19.659583930938
  C        23.5335816051        6.7212074751        20.642643181538
  C        22.8999685065        5.6846231263        21.323078570638
  C        25.1097510426        7.5532665135        18.883797662238
  C        25.0810297331        7.5465611206        17.462344649538
  C        24.3763771071        6.5487583110        16.716572956538
  C        38.2981782918       31.9277782248        21.841602747038
  C        37.5575933549       30.8392963121        21.139696589938
  C        36.5925348609       31.1467899016        20.168131289138
  C        35.9626523006       30.1292442244        19.456743169538
  C        36.2825122037       28.7778870790        19.693587538938
  C        37.2169755366       28.4778188678        20.702820652038
  C        37.8508805944       29.4943637332        21.413649918238
  C        35.6722144108       27.6901874042        18.894433598338
  C        35.7116824223       27.7054455129        17.472764466138
  C        36.4253283756       28.7056739050        16.739760521438
  C        25.7053465928        8.6155661399        16.742239048838
  C        25.7094062797        8.6267652951        19.554326372638
  C        38.3305203355       31.9611994568       10.1608837447
  C        37.6127063122       30.8888091448       10.9096747518
  C        36.6808021754       31.1995690728       11.9121063974
  C        36.0699132936       30.1834262717       12.6449369878
  C        36.3757889478       28.8295519014       12.3998369926
  C        37.2883827837       28.5286927777       11.3698822194
  C        37.9011354430       29.5413942576       10.6381299963
  C        35.7599339795       27.7319095298       13.1819523798
  C        35.7563207580       27.7269002578       14.6045487413
  C        36.4453538788       28.7168315914       15.3733258040
  C        46.1354480275       26.6209363343       15.2814844513
  C        46.0877526520       26.5804544956       12.4735674581
  C        22.4608152459        3.2556550691       10.2578532834
  C        23.1547146079        4.3642238848       10.9814509316
  C        24.1575708712        4.0781461517       11.9214977108
  C        24.7857856765        5.1081256841       12.6175464809
  C        24.4316670860        6.4541726813       12.3961731189
  C        23.4518108754        6.7335221889       11.4246590795
  C        22.8188483648        5.7037642055       10.7291832911
  C        25.0635988978        7.5518887871       13.1702971298
  C        25.0581374001        7.5450446912       14.5931968722
  C        24.3636753422        6.5489670395       15.3499262964
  C        26.6157332396       17.8608795136        21.772870844738
  C        25.3100945346       17.9087146486        21.048410321238
  C        25.0468045651       18.9110967321        20.101112810738
  C        23.8344048009       18.9300393369        19.414086920138
  C        22.8483502881       17.9513653034        19.653560300538
  C        23.1075373762       16.9720445552        20.631259191538
  C        24.3220533879       16.9465594199        21.314918872838
  C        21.5756056607       17.9367669803        18.888393656438
  C        21.5768369672       17.9181184450        17.465826541938
  C        22.7832053254       17.7988041518        16.706084099338
  C        34.4400749062       17.1932819950        21.908678211438
  C        35.7308533694       17.1486962121        21.162558531438
  C        35.9341670125       16.1873764656        20.160310072438
  C        37.1143442898       16.1792073262        19.422652837138
  C        38.1235373397       17.1300162171        19.669460436938
  C        37.9229663251       18.0717815405        20.696381399238
  C        36.7392767826       18.0865439481        21.430005360538
  C        39.3781525692       17.1414319728        18.884827246538
  C        39.3747330055       17.1607517242        17.463449125138
  C        38.1683459958       17.2868139384        16.705172423538
  C        20.3305785130       17.9343836960        16.756603810338
  C        20.3506343230       17.9367775450        19.570218382238
  C        34.4767090227       17.2463730319       10.1828190192
  C        35.7778772306       17.1746064436       10.9069047767
  C        35.9964406363       16.1887617808       11.8808506639
  C        37.1817864780       16.1743730155       12.6100524393
  C        38.1771222530       17.1442032214       12.3825590247
  C        37.9656172489       18.1048233099       11.3763673426
  C        36.7775639538       18.1252525397       10.6512892913
  C        39.4234955703       17.1642054105       13.1779355142
  C        39.3976409916       17.1723323936       14.5985689214
  C        38.1788836830       17.2899831083       15.3385687306
  C        35.1164598539       26.6502317153       15.3047219355
  C        35.1730094310       26.6612565859       12.4951803561
  C        26.5721711022       17.8279330645       10.3245906730
  C        25.2570995265       17.8747190459       11.0299186883
  C        24.9924921501       18.8816277906       11.9705881308
  C        23.7750298336       18.9075947933       12.6450830848
  C        22.7926104000       17.9269368005       12.4021466947
  C        23.0511953557       16.9452452391       11.4283383811
  C        24.2695328643       16.9169096467       10.7524098708
  C        21.5291618898       17.9088779321       13.1756011619
  C        21.5528905687       17.9018344734       14.5972364781
  C        22.7713688880       17.7905929383       15.3397757924
  C        14.0468522306       17.8289261732       10.2887258634
  C        15.3514077805       17.8863090062       11.0137724120
  C        15.6077297977       18.8891881277       11.9618313637
  C        16.8167799221       18.9102400644       12.6545829282
  C        17.8038987515       17.9313169192       12.4214644180
  C        17.5523866292       16.9528052116       11.4411468395
  C        16.3427370727       16.9270885767       10.7500267930
  C        19.0729182706       17.9147494962       13.1905869564
  C        19.0713295525       17.9122446217       14.6130811756
  C        17.8641605602       17.8122642087       15.3739357758
  C        46.8066227026       17.2201977612       10.1597117810
  C        45.5187951609       17.1637901428       10.9081147157
  C        45.3123087366       16.1901150748       11.8973573330
  C        44.1321948355       16.1788661196       12.6358663275
  C        43.1299181325       17.1414305262       12.4062051361
  C        43.3339879845       18.0950318299       11.3908337337
  C        44.5146402640       18.1102248196       10.6534500209
  C        41.8772964377       17.1581047480       13.1940347312
  C        41.8815253926       17.1565100699       14.6156334187
  C        43.0899206401       17.2476588428       15.3756201625
  C        20.3178974842       17.9252960725       15.3217382108
  C        20.2972977521       17.8955305032       12.5087094295
  C        46.7857975771       17.2309045690        21.880110834538
  C        45.4817436135       17.1259173273        21.167053739938
  C        45.2623662505       16.1310472803        20.202466703238
  C        44.0739607035       16.1081640716        19.476931201238
  C        43.0763481184       17.0769835171        19.699631811338
  C        43.2852694701       18.0401848884        20.704114844038
  C        44.4748682131       18.0697264746        21.424347471038
  C        41.8315724904       17.1060168809        18.901593146838
  C        41.8584596885       17.1283776271        17.481045941538
  C        43.0789694090       17.2317818339        16.742013914938
  C        46.1532673188       26.6372923931        16.716039015138
  C        46.1624155052       26.6560159711        19.525670779638
  C        14.0452660764       17.8314125995        21.698323272338
  C        15.3659347404       17.9052127912        21.007244519838
  C        15.6393192359       18.9207466305        20.078792785538
  C        16.8681343349       18.9578379730        19.423652066238
  C        17.8511582865       17.9785471652        19.671180479338
  C        17.5845180547       16.9917691434        20.637682773238
  C        16.3577088385       16.9541403986        21.296323795038
  C        19.1185665768       17.9544245545        18.902554579938
  C        19.0952016077       17.9316957408        17.481040643838
  C        17.8757745517       17.8209615860        16.739952544838
  C        28.8121451310       14.0942095572       10.3946722879
  C        28.2000690214       12.9198181220       11.0817852665
  C        28.9270163875       12.1679676083       12.0167327742
  C        28.3273036981       11.0927122714       12.6677803292
  C        26.9866247712       10.7440950071       12.4067639499
  C        26.2812896915       11.4754251793       11.4343788804
  C        26.8784566882       12.5514552128       10.7826996775
  C        26.3179723993        9.6633200762       13.1674582234
  C        26.3091277447        9.6880927468       14.5885121202
  C        26.8169080107       10.7990856632       15.3341293295
  C        32.1781639291       21.2413753216       10.1480644994
  C        32.7701125380       22.4091698670       10.8663333995
  C        32.0185039836       23.0897874285       11.8368930059
  C        32.5866075186       24.1303842975       12.5656263977
  C        33.9226015787       24.5188402800       12.3463628484
  C        34.6565901578       23.8572217853       11.3435413371
  C        34.0907645582       22.8116242986       10.6160365330
  C        34.5488790382       25.5937625448       13.1505008219
  C        34.5278975104       25.5672707435       14.5725204421
  C        34.0091325157       24.4549927505       15.3080948957
  C        25.6981780123        8.6110946350       15.3075418586
  C        25.6785852413        8.6143608299       12.4939797741
  C        32.0797513614       21.2021816701        21.867054356738
  C        32.6479658442       22.3657053356        21.124201574838
  C        31.9092403022       23.0216095353        20.127410187138
  C        32.4809194419       24.0614602038        19.396003168038
  C        33.8048380177       24.4763134329        19.642883180738
  C        34.5244525268       23.8347418060        20.669440602238
  C        33.9583706162       22.7908224044        21.395495417138
  C        34.4454477969       25.5615091016        18.862463316138
  C        34.4733697141       25.5517066419        17.440272138238
  C        33.9814875097       24.4480367015        16.674557279338
  C        40.6219681004       17.1350250398        16.756415485938
  C        40.6005054242       17.1308962046        19.565730106638
  C        28.7486200620       14.0671574117        21.809403095738
  C        28.1381508635       12.9202603706        21.071952421038
  C        28.8739922960       12.2268240610        20.099013627038
  C        28.2950196360       11.1694106101        19.401318612638
  C        26.9635549253       10.7796841980        19.650274043638
  C        26.2447060319       11.4610673852        20.650255673838
  C        26.8225014081       12.5184807946        21.350426135938
  C        26.3222488437        9.6890294972        18.877070756638
  C        26.3117841692        9.7018349349        17.455081405238
  C        26.8154831441       10.8073645103        16.700002091038
  C        18.1353827714        3.1794097205       10.3176703054
  C        17.4052225629        4.2764435226       11.0158732015
  C        16.3906970971        3.9978568607       11.9446221731
  C        15.7425599767        5.0377796917       12.6078696012
  C        16.0929712920        6.3816913038       12.3669130741
  C        17.0811671345        6.6513495010       11.4019691019
  C        17.7305046290        5.6140921122       10.7370222081
  C        15.4687359072        7.4895655981       13.1298392317
  C        15.4845573666        7.4894297906       14.5515744192
  C        16.1865213397        6.4962092416       15.3048927059
  C        42.9455778228       31.8596389682       10.0726398290
  C        43.6457787650       30.7721806384       10.8170964984
  C        44.5912782136       31.0934709364       11.8032048239
  C        45.1970118635       30.0878936106       12.5508258151
  C        44.8707210879       28.7348100723       12.3358615722
  C        43.9449240006       28.4205194906       11.3225989498
  C        43.3360429586       29.4256741141       10.5746403535
  C        45.4884418494       27.6554806224       13.1389302625
  C        45.4926204580       27.6810361384       14.5606285775
  C        44.8054595939       28.6889729328       15.3073387305
  C        14.8558401780        8.5621935945       15.2637833742
  C        14.8733773488        8.5612680051       12.4511297755
  C        42.9462732393       31.9615416835        21.798892872838
  C        43.6917062753       30.8853799230        21.085527583138
  C        44.6562665318       31.1912820796        20.113195165438
  C        45.2777719692       30.1717087967        19.395424900038
  C        44.9540146702       28.8213872316        19.633048893238
  C        44.0206051296       28.5237093246        20.643894797638
  C        43.3923707974       29.5404749034        21.356121132338
  C        45.5630429852       27.7240294640        18.847711819438
  C        45.5332308628       27.7173598007        17.426411587138
  C        44.8267727691       28.7075411149        16.673524235738
  C        35.0910296548       26.6409933821        16.739936458638
  C        35.0567623191       26.6177459011        19.550303784438
  C        18.1483809559        3.2468265649        21.696462783638
  C        17.4299137079        4.3437904337        20.987168122438
  C        16.4146586416        4.0525413972        20.063636991638
  C        15.7664311353        5.0831813515        19.388169030738
  C        16.1211686072        6.4284254928        19.610775136038
  C        17.1126157102        6.7117763178        20.567973388038
  C        17.7602241116        5.6828564790        21.247823150838
  C        15.4906826696        7.5240982505        18.838234643638
  C        15.4963428101        7.5072244665        17.417089273138
  C        16.1930735593        6.5054274297        16.670493462138
  H        10.6726138544       12.4660203741        19.893925330538
  H        11.6948378433       10.5513487719        18.651907767838
  H        15.3918026160       11.1686774286        20.761633746738
  H        14.3513636400       13.0713267279        22.006993253038
  H        13.3761774057       11.6309336700        17.190273746638
  H        50.3228742188       22.7484753443        19.976602621638
  H        49.3197131803       24.6229067016        18.670553329238
  H        45.6421859315       24.1610768198        20.853323403338
  H        46.6631208057       22.2901722790        22.161607611538
  H        47.6299285542       23.5760011567        17.235779657538
  H        14.8724513886        8.5886185922        20.598001147138
  H        50.2871098940       22.7029129620       12.0603177920
  H        49.2691155319       24.5758401419       13.3602294069
  H        45.6105662680       24.1094638913       11.1458205632
  H        46.6527024604       22.2540941763        9.8316555252
  H        47.6078543388       23.5520703660       14.7966516253
  H        40.6611109787       17.1447209465       11.4258317978
  H        48.6870580619       14.0949332079        23.789780165438
  H        10.6809468740       12.4664275334       12.0930517540
  H        11.6886607383       10.5240510009       13.2964052023
  H        15.3926548752       11.1573615035       11.2048397760
  H        14.3647464503       13.0862899639        9.9899639979
  H        13.3753495076       11.6212978339       14.7523083537
  H        47.9302070557       14.2182618579        9.7109098783
  H        47.7801038614       14.3737464065        22.484991821638
  H        49.0842805183       18.5527078119       10.8675471598
  H        10.4161574855       14.1342596644        7.9986490343
  H        24.4846780192        3.0281253306        19.907345786238
  H        25.6271467646        4.8867984796        18.682233217338
  H        23.2544909044        7.7546791212        20.837224787438
  H        22.1299421132        5.8863158747        22.063714705138
  H        23.8143813399        5.7927986948        17.257239422738
  H        36.3609338321       32.1910501819        19.972150856538
  H        35.2151958792       30.3725362513        18.704767344638
  H        37.4720319205       27.4374971624        20.894096943338
  H        38.5978945392       29.2691088536        22.171188157038
  H        36.9882515465       29.4544477402        17.289341387838
  H        25.7450071538        8.6093144387        20.642115891838
  H        36.4544391532       32.2441387505       12.1137936989
  H        35.3407892605       30.4316489653       13.4130753260
  H        37.5384770769       27.4881516468       11.1736422106
  H        38.6264163161       29.3124056749        9.8610905200
  H        37.0244712285       29.4738924826       14.8523139008
  H        46.1091294587       26.5879145622       11.3855296299
  H        44.6705123085       35.1163395720        23.800086277138
  H        24.4358014060        3.0399714953       12.0881599435
  H        25.5670310167        4.8789816700       13.3391592023
  H        23.1665532234        7.7680208252       11.2445065895
  H        22.0466152501        5.9169542259        9.9936444573
  H        23.7913181862        5.7938599574       14.8189568893
  H        44.9542499644       34.3896001778        9.6947074548
  H        44.9000608620       34.2057065045        22.478528171038
  H        40.6653634901       33.2095905539       10.8523397237
  H        23.1516553770        1.9579773836        8.0043600243
  H        25.8024094737       19.6719300080        19.918739106638
  H        23.6357620892       19.7127989733        18.685086981838
  H        22.3580500606       16.2073186646        20.824833644438
  H        24.5331515076       16.1761538245        22.052908941338
  H        23.7244811828       17.6825735872        17.235482014438
  H        35.1511502322       15.4577397265        19.968653297738
  H        37.2712492795       15.4267119758        18.652976047138
  H        38.6946043307       18.8140500858        20.889978993738
  H        36.5670495724       18.8281603085        22.206572176538
  H        37.2283850031       17.4113698425        17.235117639438
  H        20.3567644656       17.9749464333        20.658155704438
  H        35.2201455157       15.4487353127       12.0603999501
  H        37.3509911693       15.4082090427       13.3634692216
  H        38.7290708020       18.8590829245       11.1973222079
  H        36.5913664275       18.8839869203        9.8949186265
  H        37.2468475455       17.4161160584       14.7949739265
  H        35.1550483379       26.6859892206       11.4072379813
  H        28.5081999717       21.0881065549        23.962089507838
  H        25.7535379358       19.6362846085       12.1555813165
  H        23.5700500768       19.6924854300       13.3699269268
  H        22.3008287848       16.1814129788       11.2347512368
  H        24.4850524643       16.1471388376       10.0152366501
  H        23.7035521616       17.6683615262       14.7963785972
  H        29.0052113357       21.7191411151        9.7639579860
  H        29.1389792244       21.7531533634        22.600607571138
  H        32.0986629987       18.5714903458       10.9772376546
  H        27.4063174665       19.0799839253        8.0891226773
  H        14.8489486312       19.6477687820       12.1405545999
  H        17.0116943728       19.6941991465       13.3832476946
  H        18.3039940033       16.1890832220       11.2519818977
  H        16.1371139187       16.1582196360       10.0090550550
  H        16.9219791393       17.6955153178       14.8463457180
  H        46.0934498198       15.4559608595       12.0801928470
  H        43.9713071650       15.4161000524       13.3945090736
  H        42.5677446400       18.8460763667       11.2103281784
  H        44.6896928958       18.8604424219        9.8859501074
  H        44.0322119415       17.3620381384       14.8474464522
  H        20.2915154467       17.9242891011       11.4205446494
  H        46.0389739049       15.3912083281        20.022339679638
  H        43.9060742638       15.3371557754        18.728110731838
  H        42.5191867348       18.7918852261        20.882432041538
  H        44.6589122213       18.8329151943        22.176443701938
  H        44.0129361722       17.3327048344        17.287210131738
  H        46.1993207289       26.6825177218        20.613115411238
  H        52.7411732049       21.0626294091        8.1947007988
  H        14.8790133379       19.6747841382        19.887397460138
  H        17.0794020675       19.7483638331        18.706751312838
  H        18.3348387131       16.2292333339        20.836352825938
  H        16.1364657455       16.1795017787        22.026512792238
  H        16.9423256275       17.7109152573        17.283685442538
  H        52.3224713875       21.6732939816        22.284084388738
  H        52.0132113699       21.7020257005        9.4956636049
  H        49.0676149302       18.6077668484        21.193881361738
  H        13.2476423179       19.0161777323        23.967075810338
  H        29.9611167924       12.4388479358       12.2174790805
  H        28.8924308140       10.5092520466       13.3914657148
  H        25.2454717980       11.2160146078       11.2253004361
  H        26.3312551425       13.1370179043       10.0480346606
  H        27.1815551966       11.6669913346       14.7931506323
  H        30.9926141023       22.7775809366       12.0166722357
  H        31.9977420084       24.6561980797       13.3140066059
  H        35.6905598435       24.1470491595       11.1677752960
  H        34.6640895998       22.2762280864        9.8626956964
  H        33.6558731277       23.5859762921       14.7605009139
  H        25.7057958038        8.5965616698       11.4058654544
  H        30.8895829938       22.6974192324        19.931243922738
  H        31.9006442559       24.5690744499        18.628498468638
  H        35.5491373338       24.1425796770        20.867134786538
  H        34.5215754808       22.2743187346        22.169023897538
  H        33.6072353063       23.5732788344        17.198872038738
  H        40.5922347293       17.0873929420        20.653155422338
  H        32.5083232910       14.1451192439        8.2465812329
  H        29.9006271158       12.5308307639        19.907974420838
  H        28.8739335485       10.6273093184        18.656714483138
  H        25.2144393522       11.1732356433        20.849389565438
  H        26.2639947307       13.0597381973        22.110419755138
  H        27.1778048687       11.6818159084        17.232650698738
  H        33.3095673053       14.2306893258        22.458967266338
  H        33.4104362174       14.4059714761        9.5958759817
  H        32.1305017220       18.4907131145        21.173368207438
  H        30.2252904821       14.1868468211        8.0822238450
  H        16.1201999910        2.9611799392       12.1323543934
  H        14.9539769514        4.8181548371       13.3244073215
  H        17.3625562645        7.6843094304       11.2077998900
  H        18.5116000638        5.8169529184       10.0082311061
  H        16.7530953494        5.7388404012       14.7714605533
  H        44.8276268413       32.1405230244       11.9774468083
  H        45.9368474368       30.3416448629       13.3068003517
  H        43.6823269309       27.3784453915       11.1523594404
  H        42.5995261798       29.1903455525        9.8098755905
  H        44.2299683825       29.4366821436       14.7691006468
  H        14.8492899505        8.5441703748       11.3629233687
  H        44.8997523789       32.2339646117        19.921689067638
  H        46.0246188604       30.4129560969        18.642135824338
  H        43.7636335300       27.4839804556        20.835456461938
  H        42.6458714317       29.3176743478        22.114570704938
  H        44.2681981342       29.4703393132        17.208167231938
  H        35.0089026248       26.6295537898        20.637598866738
  H        36.6077761274       35.1343672686        8.1847736792
  H        16.1434554782        3.0129701220        19.894049785538
  H        14.9740544795        4.8563339736        18.678141838938
  H        17.3962370738        7.7472264295        20.744785555138
  H        18.5431312711        5.8933370489        21.972545091738
  H        16.7647908638        5.7554357068        17.208979934938
  H        36.2779437633       34.4833203102        22.263243317338
  H        36.3851430434       34.2074519303        9.4999969545
  H        40.5778141893       33.2016197538        21.143813466138
  H        17.4750511678        1.9451572060        23.966556394038
  H        29.1154570733       19.2299493937       12.5318491194
  H        28.8589896831       18.5122391845        19.877168598938
  H        31.7922160418       15.7840745466        19.584045520938
  H        31.3837578590       15.5397280715       12.5116723245
  H        28.3381765075       17.6503418638       14.6640273892
  H        29.6718201631       15.4056137466       14.5910985194
  H        30.2791968864       19.8781655558        18.051331376838
  H        32.7498440328       17.4947583648        17.514447920738
  H        32.2593435361       18.4403385596       15.0942646670
  H        18.9044646077        0.8520045781       12.3622907749
  H        40.5247161545       35.2295540620        19.941239250038
  H        42.3240425536       34.4185653531        19.579470135438
  H        22.0969116460        0.6989636191       12.3432705227
  H        11.5972408189       18.7126358522       12.3823951416
  H        52.2648427379       18.4313019444        19.666903527038
  H        49.2553666456       16.4770363745        19.574269098038
  H        10.1496373885       15.7981545963       12.2930144720
  H        50.8500696658       17.6923622417        19.944044561838
  H        10.0459554330       17.3943833167       12.0519642687
  H        20.2921873584        0.0045307599       12.0340689328
  H        39.1819030070       36.1252753388        19.678907990238
 Ni        30.9076247923       17.7930431732        18.983660140538
 Ni        31.1582603299       16.4726293588        16.152638024738
 Ni        29.9277300635       18.6953400868        15.994807116638
 Ni        30.1768024704       17.3368878589       13.1622289402
  O        10.6499625984       14.3650424936        21.475599961238
  O        12.6131656068       14.6575064062        22.573669962138
  O        49.1480948288       16.8458774662        23.979508108938
  O        50.3502993247       20.9358644088        21.637844977338
  O        48.3485850190       20.5933641634        22.655687119938
  O        11.0517479795       17.0538180171        22.490547030338
  O        50.3210047579       20.8816962873       10.4068668147
  O        48.3467547606       20.5868250657        9.3271620455
  O        49.5438003848       18.2484189494       10.0682744839
  O        12.3590934002       18.6246052923        7.9997261826
  O        48.6932734272       14.1485690652        22.741076680638
  O         8.2098891363       14.2103520079        9.3225397164
  O        10.7353856185       14.5067237191       10.6643470667
  O        12.5718469821       14.5827631093        9.3285440617
  O        22.8445871641        2.0431060279        21.476767389738
  O        21.6057795953        3.5924037999        22.579172599238
  O        42.0592179067       34.1368114838        23.966629177938
  O        37.9812818849       33.1363262382        21.562483837438
  O        39.2172829146       31.5749724178        22.655802031738
  O        20.3089662445        1.0396105494        22.491540152938
  O        38.0253180459       33.1854995140       10.4166771013
  O        39.2182133898       31.5830187142        9.3277289068
  O        40.6542548827       33.7680475075       10.0580782036
  O        18.2594865061        1.3734842496        7.9982803202
  O        44.6227824086       35.1002432277        22.746563524538
  O        24.2068012054       -0.0001264370        9.3203810025
  O        22.7531378099        2.0572388103       10.5836014546
  O        21.6247975432        3.5961142671        9.3428248887
  O        27.4980693150       18.7506775079        21.482232077338
  O        26.7593269394       16.9392898087        22.644885355938
  O        30.6701815590       19.4027420029        8.0742104317
  O        33.5879363466       16.2737484395        21.659053593038
  O        34.2750225563       18.1674492315        22.725319451238
  O        29.5732304825       17.0589157232        22.578511051638
  O        33.6169148618       16.3285180092       10.4127374924
  O        34.3059099216       18.2459611039        9.4063973072
  O        31.6589123767       18.3108787740       10.1517937967
  O        30.3215502355       15.1532671748        8.0911047861
  O        28.5516173636       21.0340360147        22.893697117938
  O        28.5144914686       20.9558226079        9.4143425046
  O        27.4591574739       18.6796872489       10.6584897318
  O        26.6949728528       16.9292013064        9.4129808327
  O        13.1488912578       18.6929162753       10.5874493258
  O        13.9195193302       16.9162157198        9.4050683018
  O        50.5964049808       19.3502868949        8.0204914871
  O        47.6835512560       16.3270254215       10.4172765798
  O        46.9523790951       18.1760627305        9.3241709128
  O        11.0698882783       17.0154733301        9.4896536031
  O        47.6761589418       16.3355231454        21.642882567438
  O        46.9280165186       18.2358035660        22.654879371938
  O        49.5688345335       18.3177266726        21.972046686638
  O        10.3186973969       15.1001011067        7.9970941223
  O        52.6708032188       21.0279048604        9.2418362858
  O        12.1468466550       20.8911938892        22.663020434338
  O        13.1080873954       18.6136667911        21.315393372838
  O        13.9571849909       16.9870048171        22.655200608538
  O        29.9965993960       14.4480523371       10.7338010141
  O        28.0910487421       14.6530500307        9.4970721881
  O        32.1397144433       16.8551990979        8.0840370891
  O        30.9637163057       20.9488574361       10.4121514321
  O        32.9454927338       20.6042374917        9.3406296428
  O        29.5706072868       17.0725855688        9.5753319028
  O        30.8534607156       20.8868526329        21.648175463438
  O        32.8716120806       20.5871614835        22.655567459638
  O        31.6838091519       18.2580046950        22.005875089738
  O        28.2895463012       18.6764348690        8.0779364756
  O        32.4923055232       14.2141643654        9.3288257770
  O        32.4058667106       14.2138220168        22.816636148438
  O        29.9205937971       14.4376734311        21.483739109838
  O        28.0388622747       14.5903147246        22.743111512838
  O        17.8898027052        1.9651917196       10.6634578899
  O        18.9561707102        3.5264971796        9.4083875987
  O        39.1692374815       34.1390278724        7.9994538469
  O        43.2804041111       33.0593220400       10.3313476098
  O        42.0345044928       31.5065801791        9.2414636743
  O        20.3212666969        1.0371828595        9.4790587476
  O        43.2760903148       33.1825348750        21.564593444038
  O        42.0051062556       31.5841810246        22.572794808138
  O        40.5787388615       33.7748220565        21.925553776338
  O        22.3684515018        1.3848563302        7.9972098712
  O        36.6741901965       35.0996177509        9.2358238342
  O        16.4460103343        0.0646412702        22.657900874238
  O        17.9365136530        2.0433173343        21.316396170238
  O        18.9189210640        3.5931163506        22.655873915038
  O        29.7667990987       18.7587367849        20.141695371738
  O        29.8300397847       18.8211824698       12.0044349983
  O        31.2943275332       16.3955936025        20.157183592638
  O        31.3957197752       16.4074193867       12.0621084711
  O        32.0513981405       16.8537232449        17.750371015738
  O        30.4976506065       15.9078476978       14.4802568781
  O        32.7453515554       17.5832358496       15.0673772844
  O        30.7462944094       19.1282716772        17.639556744638
  O        29.0627402161       18.2493196280       14.4035128921
  O        39.4555128399       35.2438557131        19.991919938338
  O        19.2009822706        0.0038208959       11.9878736052
  O        41.9699038100       35.1723623453        20.076392239838
  O        21.7009230011       -0.0689936263       11.8979131058
  O        51.3650584131       18.6143014783        19.995194236338
  O        10.7514095397       18.7470940488       11.9049229173
  O        50.0798621611       16.4127898118        20.081425723438
  O         9.5240147262       16.4831309295       11.9912567786
 Zr         9.2972300088       16.0527021941        22.172240589838
 Zr        49.8365730814       16.0066095458        9.7462970546
 Zr        22.0724716908        0.0305286671        22.175876862538
 Zr        42.4635457249       35.1519906017        9.7914061344
 Zr        29.6082833434       19.0974336387        22.300573385438
 Zr        29.5812295021       19.1696637194        9.8665112795
 Zr        11.0383268168       19.0518824668        9.8277728530
 Zr        11.0441467063       19.1547727122        22.240754571638
 Zr        31.3554270952       16.1072976102        9.8627609962
 Zr        31.3848666361       16.0171348123        22.287044776738
 Zr        18.6070291861        0.0000179186        9.7754540056
 Zr        18.5061097524       -0.0089041292        22.206661661938
 Zr        12.3023376118       16.3234797263        23.980158104338
 Zr        48.6170437324       18.8332541509        8.0101848832
 Zr        20.3146897889        2.4738735319        23.979851423938
 Zr        40.6407935547       32.6871048703        23.967599368938
 Zr        28.3416071014       16.3336069511        8.0807177742
 Zr        32.6399355273       18.8416762415        8.0536869756
  H        32.6457582332       17.2969058845       14.1318655770
  H        29.4633920844       20.0599925837       15.867089032138
  H        30.0302924331       15.9567545833        16.888950717538
