     573
 i =      135, E =     -4762.8461255332
  C        11.8588296392       14.0535123052        21.731319204938
  C        12.4562793887       12.8906151865        21.013075967538
  C        11.7045191394       12.1715346166        20.071566959338
  C        12.2809181385       11.1093448917        19.379234393238
  C        13.6215800727       10.7397327930        19.606802552138
  C        14.3548399721       11.4435135875        20.580046849338
  C        13.7819467642       12.5084888547        21.271540200538
  C        14.2610883185        9.6490600610        18.833406294138
  C        14.2562958005        9.6569532375        17.411714371938
  C        13.7431284211       10.7590838015        16.657821101838
  C        49.1269458135       21.2331336850        21.869454590038
  C        48.5502686212       22.4011655935        21.142478579438
  C        49.3001901263       23.0682445567        20.161232199638
  C        48.7332737244       24.1073987170        19.428035766238
  C        47.4028574931       24.5093385540        19.656897541438
  C        46.6720681773       23.8607700491        20.670740701838
  C        47.2344982227       22.8158626595        21.400095426138
  C        46.7725515568       25.5869726113        18.859599025138
  C        46.7614844309       25.5573055862        17.437835310138
  C        47.2614714506       24.4422518719        16.694311941538
  C        14.8602394867        8.5706267383        16.698444926438
  C        14.8919290001        8.5971513509        19.510055830838
  C        49.1133241311       21.2034512690       10.1453473035
  C        48.5280400851       22.3649204773       10.8723844328
  C        49.2671478904       23.0252993311       11.8656205504
  C        48.6908704876       24.0598806854       12.5970834234
  C        47.3606105327       24.4570207912       12.3585801249
  C        46.6403877312       23.8125304757       11.3346429999
  C        47.2138778389       22.7766053949       10.6028428799
  C        46.7221194282       25.5319180209       13.1496548940
  C        46.7337401466       25.5281653100       14.5713648388
  C        47.2492101547       24.4289705408       15.3277566260
  C        40.6201881674       17.1067031668       15.3139791707
  C        40.6296488641       17.1303823101       12.5037205928
  C        11.8830479545       14.0865481612       10.2855360267
  C        12.4723463503       12.9108477599       10.9897893392
  C        11.7148360758       12.1775804004       11.9158683272
  C        12.2814592364       11.0951417616       12.5842584243
  C        13.6203126266       10.7214747043       12.3524547748
  C        14.3582809654       11.4371170095       11.3917004435
  C        13.7928254884       12.5182760425       10.7190274523
  C        14.2538970903        9.6247114531       13.1228557978
  C        14.2525093221        9.6446456308       14.5446932679
  C        13.7426173909       10.7535814039       15.2917762136
  C        22.5114906565        3.2442206808        21.743041012838
  C        23.2254710432        4.3495728482        21.043659744138
  C        24.2202942190        4.0697820831        20.095200730838
  C        24.8463768137        5.1097255975        19.413080911038
  C        24.4932553674        6.4513011622        19.659596203838
  C        23.5268647236        6.7226058056        20.645190112538
  C        22.8959990198        5.6844904383        21.325556973238
  C        25.0978229375        7.5581509008        18.884042254238
  C        25.0665506822        7.5527752379        17.462723035238
  C        24.3616031674        6.5551328132        16.716994244238
  C        38.3026547954       31.9297183836        21.838934883338
  C        37.5730470843       30.8400846047        21.129599890038
  C        36.6136800354       31.1435904023        20.151553794338
  C        35.9966223861       30.1230278563        19.433516398938
  C        36.3241462819       28.7739354254        19.672110351638
  C        37.2537371288       28.4778910413        20.686767516638
  C        37.8749739179       29.4971646004        21.403558682738
  C        35.7219850510       27.6820541742        18.874958170338
  C        35.7529344205       27.6972343354        17.453613684638
  C        36.4589433796       28.6994765849        16.716271733238
  C        25.6890459179        8.6228129094        16.742797460438
  C        25.6979933091        8.6312091769        19.554896872038
  C        38.3287826973       31.9619314677       10.1563225573
  C        37.6074753858       30.8883309967       10.8981463938
  C        36.6782954921       31.1963890757       11.9035763064
  C        36.0685923584       30.1774654231       12.6329151753
  C        36.3737171443       28.8249712745       12.3804199637
  C        37.2805020824       28.5268792932       11.3448623963
  C        37.8923434945       29.5422881493       10.6167983433
  C        35.7659146807       27.7256337594       13.1645816503
  C        35.7754252876       27.7194780289       14.5866412529
  C        36.4692700044       28.7104544580       15.3497364643
  C        46.1356141674       26.6207236413       15.2815287309
  C        46.0881769138       26.5803141567       12.4736327097
  C        22.4599816892        3.2561637571       10.2579909422
  C        23.1515478514        4.3658585620       10.9815379484
  C        24.1516300942        4.0817989659       11.9250549265
  C        24.7767358152        5.1133807602       12.6214438084
  C        24.4222043549        6.4587679939       12.3967378709
  C        23.4452677367        6.7360361787       11.4217417938
  C        22.8153011068        5.7047038593       10.7260638398
  C        25.0508703267        7.5579841890       13.1710761487
  C        25.0429492423        7.5521918266       14.5938817912
  C        24.3485550205        6.5558779960       15.3503692452
  C        26.6236821071       17.8647594637        21.771589272038
  C        25.3161401707       17.9085040846        21.047050746938
  C        25.0588202122       18.8992785357        20.086581494838
  C        23.8450392072       18.9191546161        19.402013916238
  C        22.8517839392       17.9511368094        19.655231584938
  C        23.1056740538       16.9827707943        20.644844618038
  C        24.3214375401       16.9576439993        21.327032441938
  C        21.5782670313       17.9353160451        18.891135359638
  C        21.5778686853       17.9089274343        17.468575558538
  C        22.7831955866       17.7794261931        16.708783932538
  C        34.4341456086       17.1941458066        21.908096004638
  C        35.7274053885       17.1441739246        21.163021450238
  C        35.9342984522       16.1713582243        20.172742853138
  C        37.1160913900       16.1561524147        19.437145516338
  C        38.1227457527       17.1130018153        19.671295119238
  C        37.9184510140       18.0669520656        20.686273052338
  C        36.7340361798       18.0870303499        21.419527438138
  C        39.3764142839       17.1203823506        18.883190997738
  C        39.3689110024       17.1288120757        17.461495900338
  C        38.1588734012       17.2427419721        16.706891749738
  C        20.3314843514       17.9277587812        16.759512456138
  C        20.3530313259       17.9410056735        19.572784312138
  C        34.4197807807       17.2144442145       10.2226150608
  C        35.7269214197       17.1366422354       10.9383258251
  C        35.9482257512       16.1571037752       11.9181152657
  C        37.1443323906       16.1350679915       12.6306398031
  C        38.1473727661       17.0936443554       12.3853148254
  C        37.9316193626       18.0472755142       11.3729519253
  C        36.7352649691       18.0722637326       10.6608606347
  C        39.4002242586       17.1142093215       13.1726379073
  C        39.3812443646       17.1258810147       14.5939235748
  C        38.1657494202       17.2390178837       15.3404803937
  C        35.1443219592       26.6407301519       15.2908436816
  C        35.1760320472       26.6546834875       12.4816268680
  C        26.5721104667       17.8262750325       10.3251561218
  C        25.2584767435       17.8691559782       11.0340721019
  C        24.9959074528       18.8696398640       11.9821673287
  C        23.7781443661       18.8934049892       12.6563364841
  C        22.7933467639       17.9167267191       12.4060411291
  C        23.0506922287       16.9409765373       11.4260121408
  C        24.2691792905       16.9150067269       10.7502402171
  C        21.5293225423       17.8977806589       13.1784020224
  C        21.5529184335       17.8881815195       14.5999811811
  C        22.7707061817       17.7694355957       15.3425659467
  C        14.0470757148       17.8285929711       10.2893599622
  C        15.3512865520       17.8847802831       11.0150913775
  C        15.6085399467       18.8872343882       11.9634624305
  C        16.8174504878       18.9069750848       12.6566301922
  C        17.8038465644       17.9270893300       12.4240341704
  C        17.5512999776       16.9489360569       11.4435250846
  C        16.3419192941       16.9245980667       10.7518268446
  C        19.0729521475       17.9088688100       13.1933575232
  C        19.0715005175       17.9067686613       14.6159734811
  C        17.8643564144       17.8105431541       15.3773356264
  C        46.8023526029       17.2179045197       10.1577368391
  C        45.5087889883       17.1527951213       10.8998626758
  C        45.3002386748       16.1719555305       11.8819360997
  C        44.1162461014       16.1502508740       12.6148438931
  C        43.1096208030       17.1094898600       12.3886935243
  C        43.3148440373       18.0692960429       11.3790442821
  C        44.4997038761       18.0947748766       10.6469432540
  C        41.8561370071       17.1186652508       13.1789267408
  C        41.8650622818       17.1198763038       14.6013904628
  C        43.0756243985       17.2158833473       15.3575647865
  C        20.3181964439       17.9164081473       15.3246059856
  C        20.2973744085       17.8878624187       12.5114089590
  C        46.7856628889       17.2324742843        21.876871942338
  C        45.4836704803       17.1291045597        21.157357867238
  C        45.2649140970       16.1301133062        20.196657070438
  C        44.0773827411       16.1035840197        19.469243279338
  C        43.0789528283       17.0731528316        19.685412159638
  C        43.2887547807       18.0432264874        20.683269136438
  C        44.4773117202       18.0759161315        21.405844764738
  C        41.8310076316       17.0935950040        18.890430441338
  C        41.8524187399       17.1055065901        17.469222263738
  C        43.0696212895       17.2063610510        16.724349791438
  C        46.1533684891       26.6371294766        16.716083452138
  C        46.1625894612       26.6561057361        19.525721395338
  C        14.0459821344       17.8322175391        21.698840791338
  C        15.3672496225       17.9076497623        21.009418841538
  C        15.6400508493       18.9224291295        20.079878175138
  C        16.8692410899       18.9602564482        19.425452278638
  C        17.8534301987       17.9825061710        19.674638883938
  C        17.5876854826       16.9972072440        20.642959938038
  C        16.3605174926       16.9587582143        21.300863534438
  C        19.1206136555       17.9569550458        18.905563251738
  C        19.0962934763       17.9303199463        17.484116252138
  C        17.8765300395       17.8209682081        16.743343713038
  C        28.8072147054       14.0921608446       10.3922467388
  C        28.1920569537       12.9209044181       11.0814365140
  C        28.9139907200       12.1762733924       12.0259148344
  C        28.3118393086       11.1028100781       12.6774743660
  C        26.9739228869       10.7499008743       12.4082682569
  C        26.2736233570       11.4750365954       11.4276117020
  C        26.8733073399       12.5488624250       10.7746951294
  C        26.3032725937        9.6705480743       13.1686933624
  C        26.2913737013        9.6967530386       14.5896898144
  C        26.7970928444       10.8085303120       15.3356753772
  C        32.1805750704       21.2350901736       10.1458385916
  C        32.7755812555       22.4017777074       10.8639039798
  C        32.0271976778       23.0807676781       11.8378531265
  C        32.5976341524       24.1204774250       12.5658684021
  C        33.9322916459       24.5095404672       12.3409240112
  C        34.6628655331       23.8499678712       11.3345207888
  C        34.0947431547       22.8048948933       10.6082579816
  C        34.5608420670       25.5851683815       13.1413613835
  C        34.5520817176       25.5570436878       14.5631010329
  C        34.0422592610       24.4426001211       15.3016287264
  C        25.6812355541        8.6191141210       15.3083089919
  C        25.6664117890        8.6201989908       12.4949831541
  C        32.1016405988       21.2243661034        21.871884613238
  C        32.6927636009       22.3761436484        21.127729159938
  C        31.9577810154       23.0375464978        20.131877157538
  C        32.5382829142       24.0674086200        19.395034505138
  C        33.8675438590       24.4663609947        19.636384571438
  C        34.5852938756       23.8186429215        20.660037417238
  C        34.0095915342       22.7830840820        21.391705354938
  C        34.5079314060       25.5476431567        18.852063967838
  C        34.5241893169       25.5384439735        17.430107164938
  C        34.0280108593       24.4340627705        16.668269732838
  C        40.6132265296       17.1036285715        16.748809765538
  C        40.6019097070       17.1192884357        19.559042848538
  C        28.7464469431       14.0669974586        21.806871725238
  C        28.1354713204       12.9213924804        21.068496235238
  C        28.8715169290       12.2187734144        20.102443219838
  C        28.2884098413       11.1634261971        19.404931458938
  C        26.9534090853       10.7836369689        19.649555703938
  C        26.2341941202       11.4735270980        20.643132659138
  C        26.8155202787       12.5300703486        21.341448470838
  C        26.3091716566        9.6940192110        18.877416522838
  C        26.2958775119        9.7085577251        17.455759671638
  C        26.7974051451       10.8155623722        16.701526872038
  C        18.1354168695        3.1810047159       10.3171999719
  C        17.4061904012        4.2782783026       11.0158731737
  C        16.3902650579        3.9999666222       11.9431771526
  C        15.7425558429        5.0399860668       12.6066362011
  C        16.0946921352        6.3836765707       12.3671207250
  C        17.0843161674        6.6531583913       11.4036003960
  C        17.7333850254        5.6157785692       10.7385758561
  C        15.4703285184        7.4913817701       13.1301442392
  C        15.4855004481        7.4906493894       14.5518597951
  C        16.1870159065        6.4970031412       15.3050266051
  C        42.9458722737       31.8595608168       10.0728821257
  C        43.6463166691       30.7718596627       10.8168769433
  C        44.5917626571       31.0932215457       11.8030018853
  C        45.1975034405       30.0876960608       12.5506855822
  C        44.8711819058       28.7346281311       12.3357578403
  C        43.9454350410       28.4202498603       11.3224932998
  C        43.3365737412       29.4253723237       10.5744536344
  C        45.4887932784       27.6553216777       13.1389276702
  C        45.4928414880       27.6808277333       14.5606262796
  C        44.8056446923       28.6887958346       15.3072562079
  C        14.8564981448        8.5631188016       15.2642257877
  C        14.8751493674        8.5632045833       12.4515528834
  C        42.9464334347       31.9616332105        21.798765821238
  C        43.6916888608       30.8854462739        21.085234260638
  C        44.6563708336       31.1913361222        20.113033203438
  C        45.2779207485       30.1717376754        19.395322548238
  C        44.9540687421       28.8214383133        19.632900722038
  C        44.0204665424       28.5237821110        20.643561922438
  C        43.3921777620       29.5405639686        21.355710450038
  C        45.5631388656       27.7240157188        18.847675966338
  C        45.5333288366       27.7172445372        17.426380079638
  C        44.8269105326       28.7074156753        16.673440849938
  C        35.1315731689       26.6302408626        16.725688311238
  C        35.1180115374       26.6063007281        19.535531276938
  C        18.1485664019        3.2470238880        21.696374130638
  C        17.4300737733        4.3438794041        20.987004956938
  C        16.4146037422        4.0526432880        20.063711047338
  C        15.7663206827        5.0833087961        19.388346687038
  C        16.1212567902        6.4285021191        19.610866370338
  C        17.1129517034        6.7118559213        20.567793579538
  C        17.7605960373        5.6829132332        21.247544800938
  C        15.4906999067        7.5241985517        18.838457148038
  C        15.4964942720        7.5075443442        17.417325418038
  C        16.1932247685        6.5058196183        16.670629947838
  H        10.6723196898       12.4654907184        19.894693540938
  H        11.6946154275       10.5507047134        18.652829981338
  H        15.3919761888       11.1691666492        20.761553364738
  H        14.3515595594       13.0719183487        22.006698723138
  H        13.3761867727       11.6312356192        17.191134046238
  H        50.3228121175       22.7480330499        19.976298624938
  H        49.3197226750       24.6225033100        18.670319602838
  H        45.6427347369       24.1618959151        20.854229865338
  H        46.6636298901       22.2909370059        22.162512034138
  H        47.6301399027       23.5759131415        17.235967829938
  H        14.8724392525        8.5884700205        20.598364576338
  H        50.2870796114       22.7022032967       12.0607363611
  H        49.2692224013       24.5750970064       13.3607786552
  H        45.6111703267       24.1102029080       11.1452333901
  H        46.6532011946       22.2548235969        9.8309161070
  H        47.6081325926       23.5519050165       14.7968704869
  H        40.6324171164       17.0974694933       11.4158472687
  H        48.6871458290       14.0950712803        23.789780734338
  H        10.6813336966       12.4665522911       12.0932294420
  H        11.6896964300       10.5246537987       13.2969022132
  H        15.3937613570       11.1593638348       11.2058384066
  H        14.3652466835       13.0877348096        9.9906351550
  H        13.3759060026       11.6222527716       14.7531555241
  H        47.9301859395       14.2185450040        9.7110774403
  H        47.7800323430       14.3738294382        22.485210170438
  H        49.0835950576       18.5523396732       10.8673395281
  H        10.4162584598       14.1343572840        7.9988928529
  H        24.4803038625        3.0312322550        19.902936580338
  H        25.6178795317        4.8930165202        18.677396309138
  H        23.2473111159        7.7555763936        20.841715428438
  H        22.1274451422        5.8842104577        22.068216054338
  H        23.8001117997        5.7987960203        17.257653090038
  H        36.3765951379       32.1867430289        19.956234640738
  H        35.2522801999       30.3616556202        18.677022720638
  H        37.5139101797       27.4388527726        20.877952182038
  H        38.6184171494       29.2767205812        22.165900221238
  H        37.0241441196       29.4492022132        17.262261400438
  H        25.7356063125        8.6127536966        20.642597282238
  H        36.4547653895       32.2404526285       12.1109211047
  H        35.3425919872       30.4219485038       13.4051700586
  H        37.5279727759       27.4868047204       11.1430034403
  H        38.6149418745       29.3170504901        9.8362421899
  H        37.0434021301       29.4681798041       14.8243350157
  H        46.1097429111       26.5878672297       11.3856010795
  H        44.6682678104       35.1162331558        23.803718174238
  H        24.4299064632        3.0440323363       12.0942027405
  H        25.5559278708        4.8861080052       13.3458517715
  H        23.1599318561        7.7700728864       11.2391070090
  H        22.0451791789        5.9160167216        9.9878036676
  H        23.7764706930        5.8006823865       14.8192260263
  H        44.9538573943       34.3904999334        9.6953133328
  H        44.9017048387       34.2067484530        22.480505985538
  H        40.6658637908       33.2090547824       10.8531049693
  H        23.1502261062        1.9581051569        8.0053986960
  H        25.8230809176       19.6479619685        19.891271340238
  H        23.6511446443       19.6939647005        18.663297719538
  H        22.3513410983       16.2257119883        20.849475874138
  H        24.5278906131       16.1957005283        22.075012634938
  H        23.7234095804       17.6573311387        17.238822331338
  H        35.1516509919       15.4392898528        19.988476869238
  H        37.2755667417       15.3933528089        18.678119477338
  H        38.6872531307       18.8144488676        20.870995165238
  H        36.5594441736       18.8378515919        22.186739570238
  H        37.2209226273       17.3608025598        17.242435641738
  H        20.3595994349       17.9842915271        20.660528458938
  H        35.1662824498       15.4272957543       12.1151301463
  H        37.3159610575       15.3699434655       13.3846971571
  H        38.6992618976       18.7932693503       11.1776002775
  H        36.5490110092       18.8243120404        9.8976900478
  H        37.2325814160       17.3512271205       14.7959902860
  H        35.1485934118       26.6803733280       11.3939080750
  H        28.5064867898       21.0759503635        23.948699388238
  H        25.7582603105       19.6219565090       12.1715704895
  H        23.5741085221       19.6738532814       13.3862347939
  H        22.2988006194       16.1801181013       11.2266553667
  H        24.4834015521       16.1504674208       10.0072460306
  H        23.7015898688       17.6397196341       14.7987890806
  H        29.0122376301       21.7192684754        9.7530003463
  H        29.1771323461       21.7336510459        22.614321643738
  H        32.0717729669       18.5560308497       10.9954333879
  H        27.4045411319       19.0736281272        8.0804619771
  H        14.8506750719       19.6467585920       12.1420962587
  H        17.0128447594       19.6908196277       13.3852891583
  H        18.3020838915       16.1843730568       11.2544815816
  H        16.1360173564       16.1559326873       10.0107247188
  H        16.9216679498       17.6955637463       14.8502832542
  H        46.0834082278       15.4399451577       12.0648486345
  H        43.9569937247       15.3819208108       13.3682712926
  H        42.5466366401       18.8184509929       11.1987039311
  H        44.6733483391       18.8508522488        9.8847474610
  H        44.0161440046       17.3289062313       14.8259888294
  H        20.2916459986       17.9181044881       11.4232746777
  H        46.0409340964       15.3883578229        20.021864512038
  H        43.9105447215       15.3275660533        18.725342546338
  H        42.5232211210       18.7967256402        20.856404238938
  H        44.6601425414       18.8434199353        22.153905418638
  H        44.0056966955       17.3109509882        17.265327970338
  H        46.1995529116       26.6827621583        20.613160628138
  H        52.7413516452       21.0627343795        8.1947112737
  H        14.8789151472       19.6752070188        19.886849545838
  H        17.0798222210       19.7500504864        18.707547773138
  H        18.3391178552       16.2362427000        20.843425853438
  H        16.1401389247       16.1849175987        22.032148798838
  H        16.9428971480       17.7139481646        17.287360964538
  H        52.3230045413       21.6734804652        22.283902003738
  H        52.0137531941       21.7024575541        9.4957540759
  H        49.0681376915       18.6080248082        21.193695235738
  H        13.2477554554       19.0160314920        23.967314481638
  H        29.9453130531       12.4523581375       12.2338853688
  H        28.8729832065       10.5239130206       13.4078611814
  H        25.2398611626       11.2123295648       11.2125457153
  H        26.3307497962       13.1298209129       10.0329274338
  H        27.1601932342       11.6771351796       14.7948278901
  H        31.0018312219       22.7677869561       12.0191429490
  H        32.0120324533       24.6459954572       13.3170447080
  H        35.6954895248       24.1419108163       11.1543740745
  H        34.6641866715       22.2711357565        9.8508139867
  H        33.6859939987       23.5738910953       14.7554410491
  H        25.6966013020        8.6009783221       11.4069765978
  H        30.9339077516       22.7241230444        19.941738912938
  H        31.9614356867       24.5811576419        18.629039923038
  H        35.6143040562       24.1155840455        20.852022114238
  H        34.5690936251       22.2604747199        22.164054972638
  H        33.6613447558       23.5585241697        17.196573728038
  H        40.5979588432       17.0847749181        20.646828990638
  H        32.5059546675       14.1538219893        8.2466856560
  H        29.9024180937       12.5116586485        19.917351710538
  H        28.8666284591       10.6146670652        18.664647329538
  H        25.2010943568       11.1932732994        20.838292580838
  H        26.2569020772       13.0792511650        22.095623479438
  H        27.1594252072       11.6895385375        17.235250699738
  H        33.3064221710       14.2384308399        22.454041844838
  H        33.4061779914       14.3929919933        9.6033983100
  H        32.0991994150       18.5099576978        21.146311218238
  H        30.2068438333       14.1877564546        8.0741895259
  H        16.1180399316        2.9634793258       12.1294418116
  H        14.9529451072        4.8206496134       13.3221329433
  H        17.3669920953        7.6860018599       11.2106739554
  H        18.5156137451        5.8183955144       10.0109246088
  H        16.7535871418        5.7396806773       14.7715177404
  H        44.8279599502       32.1403240467       11.9771989163
  H        45.9373293476       30.3414953032       13.3066541956
  H        43.6828418020       27.3781660287       11.1523179603
  H        42.6000139656       29.1900459773        9.8097288011
  H        44.2302896347       29.4365528407       14.7689356311
  H        14.8515372912        8.5465088681       11.3633284235
  H        44.8999801455       32.2340172843        19.921659018838
  H        46.0249097434       30.4129708210        18.642168365138
  H        43.7634550382       27.4840579331        20.835086511738
  H        42.6455958546       29.3178157171        22.114091852138
  H        44.2683955501       29.4702801110        17.208051974038
  H        35.0756447977       26.6187513349        20.623006051238
  H        36.6051099313       35.1340222214        8.1806276672
  H        16.1433263797        3.0130855508        19.894167943038
  H        14.9738073878        4.8565200827        18.678454777838
  H        17.3967744620        7.7472813456        20.744418680738
  H        18.5437548232        5.8933277005        21.972012750838
  H        16.7646644975        5.7555938989        17.209081551538
  H        36.2785576267       34.4824835832        22.262958967938
  H        36.3807896298       34.2092060189        9.4997132908
  H        40.5801825028       33.2025928017        21.143347121638
  H        17.4706715789        1.9473530178        23.963925697238
  H        29.0318382976       19.3357433465       12.5182858738
  H        29.4346500861       19.5093909875        19.510955752738
  H        31.3561548008       15.6589485499        19.508734761538
  H        31.1923072593       15.6365460539       12.5522682141
  H        27.8610915995       17.6886228634       14.3999101807
  H        29.2638466278       15.3646355504       14.3809301096
  H        31.2232643998       19.6016592574        17.327018315238
  H        32.5668463374       17.1926798958        17.318020897438
  H        34.5355727422       18.4175045835       15.5795583762
  H        18.8531749283        0.8688267937       12.3353050042
  H        40.5279553787       35.2290695843        19.941832789438
  H        42.3240665842       34.4189052363        19.580200153538
  H        22.0875814904        0.6924228457       12.3514226492
  H        11.5969273886       18.7127227241       12.3825296520
  H        52.2652476748       18.4311720922        19.667336799938
  H        49.2548428608       16.4769384878        19.574426629938
  H        10.1500886635       15.7982021265       12.2925960321
  H        50.8503561794       17.6925995845        19.943918497538
  H        10.0460896656       17.3946256235       12.0518745620
  H        20.2144150338        0.0021726246       12.0420098096
  H        39.1837011165       36.1245875707        19.676304255938
 Ni        30.8146488138       17.7957584601        18.821503149638
 Ni        30.8142769388       16.3802370259       15.988215788238
 Ni        29.5478223926       18.5292096412       15.988802278338
 Ni        29.9273302084       17.3738897276       13.1612512499
  O        10.6499172246       14.3651456455        21.475683159038
  O        12.6131277839       14.6575355406        22.573730953938
  O        49.1477873317       16.8458776661        23.979574327838
  O        50.3503126385       20.9356852947        21.637824520538
  O        48.3485900073       20.5932625291        22.655743955538
  O        11.0517285458       17.0537752548        22.490570626138
  O        50.3210458168       20.8816114294       10.4068459798
  O        48.3467461234       20.5867208752        9.3271362627
  O        49.5436515149       18.2483682213       10.0682516526
  O        12.3591043469       18.6246424589        7.9997193552
  O        48.6932253833       14.1485996745        22.741091182638
  O         8.2098306462       14.2105582050        9.3226391904
  O        10.7353396490       14.5068184733       10.6642958491
  O        12.5717761510       14.5828586145        9.3284815049
  O        22.8444508692        2.0430987224        21.477059624338
  O        21.6052088635        3.5920637460        22.579780859338
  O        42.0582400191       34.1374245516        23.968783024038
  O        37.9817741415       33.1379862834        21.562331761338
  O        39.2181949946       31.5762412627        22.656479943338
  O        20.3083668136        1.0395700681        22.491872127538
  O        38.0245937271       33.1856396067       10.4152050639
  O        39.2191654026       31.5837235200        9.3264382816
  O        40.6523200862       33.7693797237       10.0602394879
  O        18.2553775420        1.3761898875        7.9967815215
  O        44.6222426327       35.1005329048        22.748544560138
  O        24.2053878531        0.0000325749        9.3208100275
  O        22.7529479685        2.0581845313       10.5839733023
  O        21.6242191907        3.5959211562        9.3422732954
  O        27.4975425685       18.7560716951        21.488329440738
  O        26.7648849887       16.9356687365        22.643025240138
  O        30.6612514720       19.4030218127        8.0627226855
  O        33.5807537751       16.2756693145        21.655876120838
  O        34.2725594677       18.1658207016        22.726846738338
  O        29.5707380387       17.0660052699        22.571293800838
  O        33.5378269043       16.3276940012       10.4955317594
  O        34.2675342522       18.1790616589        9.4050970422
  O        31.6462532196       18.3155065574       10.1561369154
  O        30.3158129664       15.1527692066        8.0853401122
  O        28.5556819222       21.0330623831        22.884502539338
  O        28.5143269954       20.9557307873        9.4141601362
  O        27.4579046918       18.6794646277       10.6586993889
  O        26.6940743038       16.9289453708        9.4133163954
  O        13.1489890904       18.6928439876       10.5875493400
  O        13.9194868953       16.9162684375        9.4051666592
  O        50.5962046501       19.3501852413        8.0205666160
  O        47.6813229595       16.3274755138       10.4176748669
  O        46.9505492872       18.1759789654        9.3250977219
  O        11.0697186954       17.0155205295        9.4895795821
  O        47.6755264778       16.3358730909        21.642536079538
  O        46.9263394425       18.2359703407        22.653795190138
  O        49.5687259893       18.3177173996        21.972151640638
  O        10.3187000746       15.1001960100        7.9971245527
  O        52.6707947468       21.0278685955        9.2418200256
  O        12.1468390272       20.8912060067        22.663089178538
  O        13.1080931552       18.6136662530        21.315475008838
  O        13.9572116326       16.9871225914        22.655212893538
  O        29.9930927584       14.4415279843       10.7311365843
  O        28.0889383868       14.6538012991        9.4955436720
  O        32.0747722241       16.8592787256        8.0802367646
  O        30.9647558440       20.9491002229       10.4103889151
  O        32.9475983513       20.5970467883        9.3390138055
  O        29.5608490674       17.0766758016        9.5753938293
  O        30.8708910893       20.9435440406        21.651920224938
  O        32.8768974880       20.5850043811        22.656997213638
  O        31.6812808056       18.2518263202        21.986179930038
  O        28.2906214109       18.6763837411        8.0761964278
  O        32.4891452777       14.2149838248        9.3277473159
  O        32.4033919407       14.2176757698        22.813003781438
  O        29.9211328199       14.4363569291        21.481008576738
  O        28.0400675696       14.5884130741        22.740783089738
  O        17.8892175288        1.9666339028       10.6628351263
  O        18.9561860374        3.5271365928        9.4079927180
  O        39.1686264664       34.1388556198        7.9972113716
  O        43.2802238417       33.0589240157       10.3317367933
  O        42.0345796740       31.5064078357        9.2416097124
  O        20.3176056290        1.0367355961        9.4802163238
  O        43.2761038138       33.1825547682        21.564670037938
  O        42.0052957199       31.5840652285        22.572761591538
  O        40.5790384680       33.7750141317        21.925651164438
  O        22.3673264298        1.3845939401        7.9979559661
  O        36.6727584736       35.0997838346        9.2332870624
  O        16.4455333226        0.0642876726        22.658100726138
  O        17.9364956948        2.0433906638        21.316148464038
  O        18.9189978902        3.5931255822        22.655714721638
  O        29.8326276265       18.8265278294        20.080157182138
  O        29.7843714290       18.9081065636       12.0640139388
  O        31.1444386209       16.4159602624        20.083621005238
  O        31.1865626535       16.4856373113       12.0666231525
  O        31.7499171028       16.7093647760        17.572000487438
  O        30.1198012104       15.8234969183       14.3165893196
  O        33.6236320679       18.3893168563       15.9111724749
  O        30.3729098367       19.1895728356        17.570114672738
  O        28.6523454513       18.2503576159       14.3255975768
  O        39.4567745874       35.2439135534        19.991785523838
  O        19.1411315154        0.0043760420       11.9905642952
  O        41.9695391998       35.1726339009        20.076940418338
  O        21.6913378301       -0.0691779697       11.8959142340
  O        51.3652942401       18.6142956987        19.995202132838
  O        10.7511273409       18.7471022640       11.9049471795
  O        50.0793232958       16.4127594748        20.081577725738
  O         9.5242366795       16.4831335695       11.9911430472
 Zr         9.2976337750       16.0527365222        22.172236766138
 Zr        49.8368406535       16.0068322277        9.7463982491
 Zr        22.0733079194        0.0301431408        22.178795130838
 Zr        42.4609701788       35.1537954140        9.8009983245
 Zr        29.6032602509       19.0867605095        22.257751317038
 Zr        29.5773399372       19.1715428573        9.8635661292
 Zr        11.0387221772       19.0519048217        9.8278849686
 Zr        11.0445773437       19.1547720502        22.240744656738
 Zr        31.3269437164       16.1025865424        9.8801233872
 Zr        31.3720650071       16.0169991577        22.255321648038
 Zr        18.6011425815       -0.0012906658        9.7633399201
 Zr        18.5064852362       -0.0075477209        22.203502726938
 Zr        12.3030747035       16.3235651043        23.980182059438
 Zr        48.6171384495       18.8332211496        8.0103582898
 Zr        20.3152105530        2.4736115633        23.980334494838
 Zr        40.6434779343       32.6873512030        23.968057896338
 Zr        28.3377469702       16.3403522419        8.0759480410
 Zr        32.6171113331       18.8328923733        8.0500242900
  H        30.8513255510       17.8567275101       15.3956353487
  H        33.0743803951       18.2161226723       15.1251981130
  H        29.4878711237       17.0523811159        16.533483684838
