     563
 i =      136, E =     -4694.9888764970
  C        11.8586790237       14.0534329889        21.731325727838
  C        12.4560754407       12.8904564162        21.013052477438
  C        11.7044094159       12.1716513786        20.071272579938
  C        12.2807220659       11.1093950440        19.378958308738
  C        13.6212413071       10.7394254983        19.606784847738
  C        14.3543871397       11.4428764615        20.580362907638
  C        13.7815468596       12.5078865105        21.271859331738
  C        14.2606773400        9.6487040117        18.833390571338
  C        14.2558344172        9.6565413227        17.411687448838
  C        13.7427217177       10.7586809806        16.657770724038
  C        49.1266222855       21.2333639872        21.869557888638
  C        48.5497462644       22.4012140716        21.142480014538
  C        49.2997630375       23.0685069718        20.161446607438
  C        48.7327955495       24.1075767499        19.428191864138
  C        47.4022504442       24.5091999911        19.656820340938
  C        46.6713150600       23.8603622716        20.670374227438
  C        47.2337958865       22.8155094359        21.399777083038
  C        46.7720130947       25.5868626913        18.859514148338
  C        46.7610425965       25.5572578775        17.437754839738
  C        47.2609957628       24.4421733109        16.694260559438
  C        14.8596358110        8.5701280824        16.698417619738
  C        14.8915167175        8.5967800242        19.510030504538
  C        49.1129657697       21.2034572650       10.1453170953
  C        48.5275730616       22.3648361890       10.8723995637
  C        49.2667483469       23.0253526060       11.8654913599
  C        48.6904174698       24.0599000013       12.5969493630
  C        47.3600888563       24.4568702897       12.3585611709
  C        46.6397933914       23.8121768721       11.3348119392
  C        47.2133120286       22.7762724146       10.6029988918
  C        46.7216324772       25.5317982522       13.1496178172
  C        46.7333161461       25.5281010013       14.5713228800
  C        47.2487432445       24.4288835831       15.3277074801
  C        40.6164446136       17.0878401233       15.3182714939
  C        40.6332431842       17.1226788785       12.5079431500
  C        11.8828396551       14.0863848417       10.2855263091
  C        12.4719520948       12.9104756417       10.9896764901
  C        11.7144164081       12.1774812117       11.9159459957
  C        12.2808436774       11.0949275333       12.5843281377
  C        13.6195752443       10.7209211039       12.3523865171
  C        14.3575591541       11.4362418228       11.3914009524
  C        13.7922731202       12.5175015104       10.7187385752
  C        14.2530699088        9.6241094446       13.1227963589
  C        14.2517953756        9.6440897686       14.5446390664
  C        13.7420831126       10.7531014852       15.2917255165
  C        22.5100159908        3.2427964610        21.740533855138
  C        23.2223620722        4.3441638110        21.034109098138
  C        24.2155090208        4.0567825716        20.086114121838
  C        24.8441343426        5.0912407463        19.398512215038
  C        24.4947467570        6.4348342922        19.638648161538
  C        23.5281424939        6.7135863680        20.622151072038
  C        22.8951284277        5.6809612848        21.308710368738
  C        25.1074088612        7.5368735484        18.863340133738
  C        25.0917258413        7.5284690043        17.441878157138
  C        24.3902450130        6.5318877887        16.691901803838
  C        38.3008149236       31.9266956619        21.838093963038
  C        37.5667969541       30.8371695047        21.129166175138
  C        36.6049135709       31.1429548836        20.153734676538
  C        35.9807540415       30.1248322359        19.437423132838
  C        36.3021110266       28.7734660093        19.673330491238
  C        37.2347890600       28.4751645296        20.685002412138
  C        37.8631980269       29.4922149706        21.400349044038
  C        35.6922167974       27.6837105818        18.875450656838
  C        35.7251793537       27.6977534601        17.453329232238
  C        36.4343830574       28.6978307614        16.716104465638
  C        25.7238613129        8.5960455135        16.726188110538
  C        25.6997153667        8.6118461904        19.537503243938
  C        38.3273487149       31.9604398599       10.1569385867
  C        37.6034817718       30.8865715579       10.8983704329
  C        36.6730467674       31.1950385524       11.9028464509
  C        36.0591349596       30.1769438045       12.6304658828
  C        36.3602239752       28.8231963503       12.3783893489
  C        37.2687988107       28.5247934229       11.3441150445
  C        37.8848580825       29.5394849518       10.6176264294
  C        35.7474179877       27.7244675381       13.1618465930
  C        35.7533405924       27.7185453786       14.5845467748
  C        36.4470319819       28.7083662244       15.3494211881
  C        46.1352941083       26.6207290001       15.2814611701
  C        46.0876961317       26.5801709478       12.4735694085
  C        22.4643328588        3.2550202955       10.2545117428
  C        23.1679490796        4.3612954077       10.9707859385
  C        24.1778788265        4.0703412179       11.9017058134
  C        24.8152311485        5.0973986206       12.5931902266
  C        24.4623718086        6.4442921028       12.3765009526
  C        23.4761900954        6.7287067431       11.4132504924
  C        22.8344883192        5.7018385410       10.7216142499
  C        25.0985724358        7.5377963350       13.1522054583
  C        25.0871549554        7.5290009954       14.5744599617
  C        24.3859525586        6.5335468922       15.3255335176
  C        26.5610590437       17.8257004867        21.775106861238
  C        25.2612910597       17.8890687982        21.048841630138
  C        25.0109604511       18.8965094349        20.104347560138
  C        23.8028301379       18.9244778892        19.412060445638
  C        22.8129766124       17.9490663572        19.644949496438
  C        23.0584028287       16.9656967226        20.621375072738
  C        24.2678551910       16.9320965802        21.311220316138
  C        21.5470893459       17.9404054884        18.874006529838
  C        21.5554242813       17.9279151801        17.452216743038
  C        22.7651676447       17.8106174138        16.697465887538
  C        34.4157633805       17.2138622144        21.901889067438
  C        35.7107650616       17.1458165559        21.163132151938
  C        35.9074055693       16.1754063655        20.168231888038
  C        37.0910411335       16.1488075195        19.435196231138
  C        38.1095341264       17.0925237796        19.673988978838
  C        37.9151489534       18.0422293333        20.695538238238
  C        36.7302854419       18.0730646723        21.427608144938
  C        39.3640728551       17.0953227851        18.885627261038
  C        39.3593781528       17.1036358519        17.463050261938
  C        38.1517681305       17.2174057886        16.704613155338
  C        20.3116279300       17.9469850691        16.740132373438
  C        20.3215670992       17.9359617290        19.552692031938
  C        34.4433231173       17.2446512660       10.1831054696
  C        35.7440980239       17.1454283942       10.9080255183
  C        35.9657532430       16.1452021769       11.8671047069
  C        37.1538595129       16.1182211719       12.5938279852
  C        38.1529742937       17.0876728085       12.3786695367
  C        37.9398779055       18.0601322124       11.3836128495
  C        36.7498245501       18.0938949623       10.6624208538
  C        39.4021519093       17.1014281176       13.1736150850
  C        39.3787941436       17.1061327569       14.5950742650
  C        38.1609489906       17.2155175747       15.3378372243
  C        35.1185506729       26.6412372804       15.2882031188
  C        35.1565320507       26.6536925255       12.4784239400
  C        26.5628613435       17.8248495708       10.3269660886
  C        25.2503377685       17.8753097312       11.0302442363
  C        24.9782688283       18.8963493245       11.9530297170
  C        23.7603431316       18.9243350726       12.6255535766
  C        22.7863925956       17.9330767340       12.3952875826
  C        23.0514571319       16.9373678050       11.4380010099
  C        24.2708727226       16.9057437581       10.7654929138
  C        21.5219279999       17.9193102580       13.1652567576
  C        21.5419081969       17.9153050763       14.5862928747
  C        22.7587439812       17.8042954548       15.3312359225
  C        14.0450484975       17.8313251655       10.2845511714
  C        15.3507240874       17.8942285451       11.0027170039
  C        15.6092527492       18.9058062466       11.9403709084
  C        16.8194597654       18.9306790210       12.6296081320
  C        17.8021985601       17.9466080014       12.4020271546
  C        17.5494557137       16.9605031065       11.4303224618
  C        16.3388152721       16.9312262928       10.7424177046
  C        19.0681506794       17.9301026843       13.1724189895
  C        19.0606959260       17.9287991567       14.5940086246
  C        17.8499975066       17.8306215299       15.3494627228
  C        46.8027094060       17.2182032473       10.1593576456
  C        45.5109329057       17.1531213283       10.9046886486
  C        45.3066679375       16.1748003898       11.8903714053
  C        44.1237443168       16.1512686039       12.6250566765
  C        43.1130512747       17.1060448807       12.3974019997
  C        43.3148473284       18.0641986403       11.3852218744
  C        44.4986532337       18.0916144587       10.6513749960
  C        41.8583507193       17.1106647982       13.1860446462
  C        41.8631702606       17.1077287592       14.6086730502
  C        43.0714289046       17.2073461996       15.3680158651
  C        20.3044645661       17.9399687046       15.3062892782
  C        20.2934116498       17.9065205997       12.4938470291
  C        46.7828143849       17.2310978507        21.877818612638
  C        45.4782810823       17.1228448974        21.162138046238
  C        45.2606868262       16.1236219341        20.201093668138
  C        44.0714526627       16.0923183561        19.476326022338
  C        43.0683786847       17.0569529904        19.694654046738
  C        43.2766379184       18.0262474905        20.693903596438
  C        44.4671943051       18.0640023477        21.413714881838
  C        41.8202621544       17.0738426605        18.898258543538
  C        41.8438362857       17.0872001468        17.476794893138
  C        43.0621512116       17.1949279210        16.734685907738
  C        46.1530372749       26.6371418246        16.716008595538
  C        46.1620837921       26.6559920206        19.525644774138
  C        14.0401878741       17.8290394710        21.696583304638
  C        15.3544183395       17.8997755392        20.997581442638
  C        15.6228541852       18.9209096188        20.074178175838
  C        16.8470190363       18.9591424880        19.411871308238
  C        17.8272493253       17.9752638312        19.648832579538
  C        17.5645875215       16.9805562727        20.607805412238
  C        16.3425946578       16.9419510287        21.273951557638
  C        19.0930701530       17.9569930787        18.881032662438
  C        19.0738389375       17.9423747170        17.460102114038
  C        17.8564016331       17.8367305298        16.715480562938
  C        28.8096847414       14.0832779294       10.3655693676
  C        28.2138399234       12.9046568688       11.0551047563
  C        28.9464592855       12.1728950781       12.0011046859
  C        28.3569507863       11.0961936940       12.6591755338
  C        27.0222862533       10.7278796659       12.3939580986
  C        26.3127072098       11.4397846747       11.4101200984
  C        26.8989126259       12.5168964060       10.7515899646
  C        26.3580466722        9.6460532141       13.1563148867
  C        26.3431442032        9.6697598594       14.5773091335
  C        26.8486663536       10.7797198862       15.3260569901
  C        32.1768141841       21.2374674271       10.1122518496
  C        32.7622463320       22.4025024707       10.8405758396
  C        32.0097691680       23.0764533888       11.8153449882
  C        32.5771124223       24.1133347867       12.5513666773
  C        33.9119552519       24.5075011162       12.3332858014
  C        34.6463325971       23.8517301838       11.3266028234
  C        34.0827955411       22.8085543836       10.5940215285
  C        34.5381240782       25.5843178554       13.1368026733
  C        34.5269301938       25.5574339666       14.5590523771
  C        34.0171907367       24.4432084939       15.2976262653
  C        25.7264829909        8.5927299317       15.2920352353
  C        25.7193330611        8.5984544967       12.4796750127
  C        32.0712869054       21.1902104115        21.829589713638
  C        32.6510570897       22.3575160260        21.099033339738
  C        31.9235907728       23.0109510884        20.092111667138
  C        32.5008281650       24.0536882999        19.370032755938
  C        33.8211545188       24.4714674405        19.631486893738
  C        34.5288901317       23.8332388046        20.668445791238
  C        33.9556818977       22.7884661712        21.388731620238
  C        34.4663147309       25.5534498760        18.850227406038
  C        34.4901107874       25.5420086042        17.427555676938
  C        33.9988384847       24.4361907605        16.664317586738
  C        40.6060648974       17.0818046237        16.753441735738
  C        40.5890867577       17.0958955972        19.563621730838
  C        28.7006215550       14.0576815913        21.808512591838
  C        28.1047073089       12.9084395031        21.067630884338
  C        28.8602482311       12.1964607593        20.123395280738
  C        28.2897215610       11.1384566769        19.420713539538
  C        26.9494773012       10.7640416407        19.640956100238
  C        26.2104653431       11.4614612673        20.614459304838
  C        26.7784463280       12.5219090225        21.316746071538
  C        26.3193918115        9.6712394690        18.863567284438
  C        26.3259273396        9.6820682883        17.442231856738
  C        26.8387335551       10.7865103298        16.691848967138
  C        18.1353786217        3.1809195377       10.3171282931
  C        17.4058788761        4.2780731604       11.0156845971
  C        16.3900572152        3.9995521054       11.9430451516
  C        15.7421617383        5.0394198447       12.6065490325
  C        16.0939992144        6.3831855930       12.3670237944
  C        17.0834847299        6.6528812583       11.4034151758
  C        17.7327399609        5.6156445717       10.7383434951
  C        15.4695273278        7.4907798136       13.1301122605
  C        15.4847302036        7.4900554861       14.5518314330
  C        16.1863116488        6.4964498552       15.3049876604
  C        42.9457522416       31.8595348881       10.0728253983
  C        43.6461200463       30.7718269752       10.8167776228
  C        44.5916230521       31.0931612487       11.8028627994
  C        45.1973237763       30.0876181901       12.5505357155
  C        44.8708828472       28.7345640853       12.3356743007
  C        43.9451030943       28.4202151399       11.3224279122
  C        43.3362865671       29.4253534058       10.5743821361
  C        45.4884578644       27.6552624645       13.1388557681
  C        45.4925879737       27.6808618656       14.5605482649
  C        44.8055218040       28.6889262633       15.3071695413
  C        14.8557896292        8.5625700308       15.2641899074
  C        14.8742758142        8.5625597297       12.4515219189
  C        42.9464200402       31.9615917169        21.798787171338
  C        43.6916192184       30.8854058243        21.085311899138
  C        44.6562807174       31.1913001796        20.113081610138
  C        45.2777391451       30.1716953713        19.395322016138
  C        44.9537893067       28.8214048069        19.632844516738
  C        44.0202160508       28.5237527121        20.643536896838
  C        43.3920147444       29.5405343350        21.355747951738
  C        45.5627967446       27.7239891567        18.847595676638
  C        45.5330858269       27.7173047843        17.426302335738
  C        44.8267882670       28.7075529368        16.673353565138
  C        35.1020903810       26.6320788453        16.723848983838
  C        35.0795444371       26.6111795772        19.534344996738
  C        18.1485913346        3.2468510479        21.696394784938
  C        17.4299197538        4.3436413844        20.987086911738
  C        16.4145337385        4.0523045262        20.063728899138
  C        15.7661150550        5.0828903188        19.388368949038
  C        16.1208608596        6.4281401926        19.610883252638
  C        17.1124460127        6.7115880173        20.567904745138
  C        17.7602264372        5.6827249740        21.247654764738
  C        15.4902271026        7.5237798579        18.838444349838
  C        15.4959326956        7.5070655633        17.417304041238
  C        16.1926002404        6.5053076134        16.670594014638
  H        10.6723273450       12.4658931643        19.894176280238
  H        11.6944449781       10.5509900538        18.652354124938
  H        15.3913818363       11.1681859534        20.762163894838
  H        14.3510195753       13.0709610955        22.007406774738
  H        13.3759280680       11.6309114155        17.191055036138
  H        50.3224842378       22.7484963336        19.976731170438
  H        49.3192669873       24.6228378308        18.670600450638
  H        45.6418321643       24.1611617126        20.853552879338
  H        46.6628116621       22.2902936820        22.161910224038
  H        47.6295592944       23.5758022527        17.235938502738
  H        14.8720421052        8.5881090893        20.598341072238
  H        50.2867233619       22.7023561492       12.0605292729
  H        49.2687644491       24.5752190844       13.3605783326
  H        45.6104839888       24.1096321620       11.1455696131
  H        46.6525674609       22.2542951706        9.8312535922
  H        47.6075591770       23.5517764338       14.7968182999
  H        40.6388622364       17.0951034167       11.4199225453
  H        48.6870280964       14.0951594745        23.789767377538
  H        10.6810268976       12.4667643079       12.0934631095
  H        11.6890420489       10.5246822337       13.2971337926
  H        15.3929460753       11.1582188114       11.2054151980
  H        14.3647038646       13.0867217669        9.9901634353
  H        13.3753981109       11.6217782992       14.7530953039
  H        47.9301241955       14.2184263831        9.7109545942
  H        47.7799784655       14.3739975578        22.485085312138
  H        49.0829011674       18.5523668606       10.8672037785
  H        10.4159775949       14.1343295304        7.9987612120
  H        24.4728528507        3.0165492268        19.899697584838
  H        25.6157465277        4.8687558243        18.664689304338
  H        23.2510838443        7.7482836032        20.813023754638
  H        22.1274019679        5.8863504968        22.050713589438
  H        23.8232349997        5.7771013443        17.228967797838
  H        36.3705157523       32.1867987788        19.958694974738
  H        35.2351109791       30.3681086195        18.683635522538
  H        37.4921297709       27.4353298494        20.875946067338
  H        38.6080412414       29.2670823935        22.160087533338
  H        37.0000551774       29.4469810232        17.262446595938
  H        25.7236133206        8.5977247813        20.625632189438
  H        36.4510717992       32.2393007270       12.1110062917
  H        35.3323158412       30.4237274151       13.4012455821
  H        37.5146376390       27.4844808324       11.1413399464
  H        38.6080783258       29.3120376364        9.8382078087
  H        37.0235284908       29.4651407958       14.8252065568
  H        46.1091568661       26.5876303129       11.3855351238
  H        44.6682359502       35.1161413388        23.803868568138
  H        24.4531593297        3.0308731983       12.0650003205
  H        25.6010000309        4.8655577553       13.3090186071
  H        23.1927788275        7.7644630728       11.2375263248
  H        22.0569633699        5.9179853059        9.9925385825
  H        23.8151760864        5.7804770662       14.7900482405
  H        44.9535415595       34.3899820422        9.6948809588
  H        44.9017408423       34.2067227855        22.480581983738
  H        40.6653525978       33.2085835070       10.8528840914
  H        23.1504430257        1.9576651745        8.0040344006
  H        25.7718601915       19.6534985643        19.928765108538
  H        23.6102137527       19.7096969601        18.684223570038
  H        22.3027723922       16.2051803374        20.807106408138
  H        24.4726539436       16.1599527060        22.049015616438
  H        23.7046763266       17.6920319657        17.229568938538
  H        35.1140823522       15.4566549047        19.976134210238
  H        37.2412241947       15.3881367303        18.672221417238
  H        38.6921032237       18.7799144304        20.885372401038
  H        36.5653782544       18.8221453412        22.198641991638
  H        37.2113234473       17.3385567548        17.234659345938
  H        20.3245047695       17.9682104140        20.640749309338
  H        35.1937512925       15.3984564074       12.0386938956
  H        37.3216867897       15.3405544655       13.3358179639
  H        38.7045143344       18.8146189753       11.2105074319
  H        36.5655888279       18.8630585645        9.9162212073
  H        37.2272727637       17.3335274938       14.7953793577
  H        35.1319094201       26.6791569626       11.3905959136
  H        28.5041478133       21.0749574825        23.870495170938
  H        25.7320775969       19.6609563495       12.1253470284
  H        23.5483198132       19.7176995034       13.3389747656
  H        22.3058751240       16.1660575726       11.2563103919
  H        24.4940318694       16.1251448062       10.0422027122
  H        23.6932692418       17.6816655280       14.7915060894
  H        29.0091055254       21.7109697018        9.7384314590
  H        29.2002344070       21.6983808562        22.542049011938
  H        32.1056011426       18.6241502938       10.8907404690
  H        27.3720032378       19.0290376544        8.0766910927
  H        14.8511047004       19.6661827095       12.1137075600
  H        17.0186728774       19.7193060676       13.3520062096
  H        18.3000345433       16.1943181141       11.2473440322
  H        16.1289543025       16.1572144909       10.0081159091
  H        16.9097485149       17.7170757115       14.8178634434
  H        46.0921587525       15.4454930536       12.0741603474
  H        43.9681381332       15.3840934687       13.3804346035
  H        42.5441708048       18.8105055662       11.2036471222
  H        44.6686348566       18.8463369901        9.8869928442
  H        44.0127040937       17.3263075987       14.8390345616
  H        20.2911083411       17.9320441750       11.4056252470
  H        46.0393545571       15.3853623523        20.023242259638
  H        43.9072784109       15.3163863836        18.731731746538
  H        42.5083913555       18.7763089132        20.870081083238
  H        44.6474774658       18.8318424878        22.162119118538
  H        43.9965188403       17.3031466070        17.277873077338
  H        46.1989144883       26.6825586397        20.613089777438
  H        52.7412759932       21.0626982406        8.1946299437
  H        14.8628729856       19.6779435434        19.894106823938
  H        17.0578465319       19.7538853114        18.699562273038
  H        18.3146971098       16.2149963107        20.795079542738
  H        16.1221816161       16.1632607826        22.000038433638
  H        16.9209954253       17.7278668987        17.256154288538
  H        52.3225606861       21.6737221786        22.284443188338
  H        52.0136956581       21.7026980874        9.4954916661
  H        49.0672247502       18.6078289134        21.194060608638
  H        13.2472859652       19.0162578969        23.965998904138
  H        29.9735819248       12.4661395671       12.2070539864
  H        28.9251812383       10.5277689289       13.3922612568
  H        25.2815059062       11.1648218120       11.1984260399
  H        26.3476356789       13.0889231888       10.0094465080
  H        27.2169979131       11.6487799698       14.7889642578
  H        30.9833063065       22.7631528467       11.9911350973
  H        31.9873817292       24.6335866260       13.3030138837
  H        35.6792638350       24.1452141894       11.1508081612
  H        34.6574279745       22.2787244097        9.8377495827
  H        33.6653289484       23.5724276093       14.7517617252
  H        25.7500258318        8.5820147511       11.3916480069
  H        30.9098413962       22.6791088355        19.879328134738
  H        31.9283402196       24.5600965320        18.595969947138
  H        35.5505474104       24.1428798310        20.878731030538
  H        34.5104269971       22.2748848891        22.170349379138
  H        33.6331640663       23.5594950561        17.191344235538
  H        40.5831291114       17.0613011115        20.651427187938
  H        32.5132030040       14.1489081575        8.2415256618
  H        29.8970072414       12.4809955627        19.959779291638
  H        28.8813639190       10.5831893786        18.696124038238
  H        25.1731968942       11.1835027936        20.789586187738
  H        26.2052445013       13.0776386880        22.054899898738
  H        27.1986427199       11.6606386883        17.226897220438
  H        33.2989219113       14.2266554378        22.432247684738
  H        33.4068865718       14.3990564023        9.5990861528
  H        32.0525476872       18.4727451719        21.073151139938
  H        30.2093337037       14.1395092098        8.0758545511
  H        16.1180734232        2.9630068191       12.1293241859
  H        14.9526397153        4.8199114938       13.3220897128
  H        17.3659226879        7.6857878717       11.2104728830
  H        18.5148658940        5.8184432487       10.0106285027
  H        16.7528752168        5.7391214166       14.7714788068
  H        44.8278851931       32.1402506971       11.9770381511
  H        45.9371785071       30.3413703426       13.3064915467
  H        43.6824265258       27.3781435424       11.1523052820
  H        42.5996911893       29.1900396711        9.8096886665
  H        44.2302100991       29.4367205641       14.7688560189
  H        14.8506246164        8.5458478397       11.3632989580
  H        44.8999227377       32.2339785656        19.921736491138
  H        46.0246943094       30.4129066442        18.642127540638
  H        43.7631110299       27.4840369662        20.834981542438
  H        42.6454272879       29.3177838334        22.114121953838
  H        44.2683244062       29.4704632108        17.207951945638
  H        35.0340745822       26.6249158058        20.621731087038
  H        36.6052255330       35.1338839600        8.1807183326
  H        16.1433784224        3.0127197335        19.894171598838
  H        14.9736573858        4.8559938545        18.678448830338
  H        17.3960906189        7.7470534989        20.744586138838
  H        18.5432694343        5.8932546554        21.972214229438
  H        16.7641013392        5.7551099680        17.209019832538
  H        36.2788980677       34.4819751864        22.263046849338
  H        36.3810025241       34.2090812147        9.4997980756
  H        40.5796294223       33.2023510921        21.143666068838
  H        17.4710417622        1.9473712357        23.963797561438
  H        28.7596661777       18.8369577219       12.2651677688
  H        28.7061684348       18.6911919818        19.764251232938
  H        30.7776254211       15.3930028440        19.775799458338
  H        32.3643743065       16.5127706761       12.2897486870
  H        29.5978171291       19.0288993454       14.8274963408
  H        18.8531730560        0.8688029629       12.3351972488
  H        40.5281288240       35.2288217012        19.941881438938
  H        42.3233788486       34.4182090438        19.580361441238
  H        22.0873034152        0.6922579134       12.3515758326
  H        11.5967358190       18.7126324653       12.3824624683
  H        52.2652629522       18.4312238980        19.667709357838
  H        49.2551919472       16.4767246308        19.573982588938
  H        10.1504233175       15.7982919462       12.2924218157
  H        50.8502962828       17.6928058865        19.943790722338
  H        10.0460267026       17.3947512354       12.0518845981
  H        20.2144493218        0.0019892252       12.0420203881
  H        39.1836016566       36.1243405668        19.676347155138
 Ni        30.3161846567       17.4440702015        18.659051950638
 Ni        30.9000002672       15.9916529501       14.905519102638
 Ni        29.8411780307       17.2329374852        16.400996140138
 Ni        30.3548836983       17.4213880884       13.2455997319
  O        10.6498878857       14.3651877814        21.475573782438
  O        12.6131115083       14.6573926836        22.573655926938
  O        49.1475924052       16.8459063972        23.979480985338
  O        50.3500912500       20.9362435679        21.637991836238
  O        48.3484666147       20.5932238234        22.655750631338
  O        11.0509402530       17.0540554734        22.490433879038
  O        50.3207091639       20.8816987969       10.4068844874
  O        48.3466117546       20.5866628192        9.3270596582
  O        49.5432804600       18.2484040211       10.0683032955
  O        12.3587728778       18.6246956765        7.9996926001
  O        48.6931584178       14.1486650586        22.741044972638
  O         8.2098158343       14.2104936903        9.3225919987
  O        10.7352408420       14.5067795983       10.6643719920
  O        12.5717060436       14.5826927374        9.3285644145
  O        22.8440552354        2.0414056246        21.477274155738
  O        21.6058392961        3.5923446538        22.578828806838
  O        42.0579575781       34.1371761642        23.968887642238
  O        37.9812631383       33.1353565575        21.561764982538
  O        39.2174540601       31.5749256746        22.655386108038
  O        20.3083501006        1.0397344917        22.491805978538
  O        38.0240478309       33.1845535217       10.4156642064
  O        39.2183486845       31.5829116780        9.3271997410
  O        40.6521111478       33.7691611690       10.0601822225
  O        18.2558211483        1.3763343402        7.9967855213
  O        44.6222280049       35.1004938109        22.748627193138
  O        24.2054448466       -0.0000640771        9.3207888296
  O        22.7530932571        2.0568490223       10.5832308070
  O        21.6246639347        3.5960605134        9.3428461825
  O        27.4612808066       18.6935088297        21.474956664738
  O        26.6902481985       16.9191535970        22.658437195338
  O        30.6279318045       19.3463176185        7.9959170808
  O        33.5381266876       16.3266648392        21.645480985438
  O        34.2673105979       18.1780814821        22.732008239738
  O        29.5314031872       17.0081070445        22.567813566138
  O        33.5540055864       16.3434618200       10.4219876112
  O        34.2978438112       18.2384338287        9.4020573044
  O        31.6488983939       18.3213228681       10.0897381037
  O        30.2906364611       15.1068241344        8.0768356889
  O        28.5519872949       21.0248076332        22.818789254938
  O        28.5103656934       20.9492297729        9.3980182216
  O        27.4535746520       18.6793523913       10.6564716560
  O        26.6891897451       16.9286922365        9.4174496826
  O        13.1466435204       18.6936408948       10.5862855475
  O        13.9177136439       16.9159252191        9.4038895821
  O        50.5957913935       19.3502597389        8.0206538870
  O        47.6819692982       16.3274242019       10.4177528354
  O        46.9500529067       18.1756775066        9.3256193548
  O        11.0688975520       17.0159086375        9.4895750741
  O        47.6741894886       16.3359960883        21.642394909838
  O        46.9248682379       18.2359473595        22.653090984138
  O        49.5686715156       18.3177768089        21.972086651838
  O        10.3186474286       15.1001836847        7.9971152495
  O        52.6707150812       21.0279898318        9.2418088910
  O        12.1468111236       20.8914369848        22.663137764338
  O        13.1048013205       18.6142491571        21.316069474438
  O        13.9552379599       16.9865402952        22.655259489038
  O        29.9979195555       14.4394612155       10.6688040169
  O        28.0729818564       14.6539145092        9.4898629000
  O        32.0703964408       16.8539233477        8.0644564236
  O        30.9560150798       20.9468700664       10.3428873286
  O        32.9536806535       20.5916948186        9.3246116306
  O        29.5601926035       17.0619279115        9.5692374034
  O        30.8524265757       20.8720196050        21.573571044438
  O        32.8528321536       20.5847956439        22.643100576038
  O        31.6120681521       18.2383666813        21.906684293538
  O        28.2566676692       18.6284475769        8.0638116763
  O        32.4915333975       14.2127156489        9.3224722733
  O        32.4035665737       14.2158827963        22.810074062738
  O        29.8856508148       14.4237438979        21.487308430538
  O        27.9759750524       14.5819892408        22.728505579938
  O        17.8892388529        1.9665397021       10.6627903056
  O        18.9562363763        3.5271352240        9.4080111769
  O        39.1684675180       34.1385882084        7.9971563674
  O        43.2802054337       33.0588893607       10.3317181829
  O        42.0343685130       31.5064483482        9.2415889475
  O        20.3174256980        1.0364554093        9.4800869753
  O        43.2761110777       33.1825213154        21.564698017338
  O        42.0052221198       31.5841474670        22.572792383138
  O        40.5790035900       33.7750633402        21.925771322638
  O        22.3672120782        1.3845781698        7.9979947095
  O        36.6728085149       35.0997175615        9.2333304278
  O        16.4456701070        0.0640393799        22.657985961538
  O        17.9364177921        2.0432021030        21.316239062238
  O        18.9190595913        3.5931522679        22.655671281438
  O        29.6581680232       18.6918640817        19.984605750638
  O        29.6957090925       18.7653415856       11.9921048107
  O        31.1258065569       16.2595588125        20.058569575738
  O        31.4274237267       16.3465531998       12.0803967640
  O        29.3232125240       18.0943227058       14.7483044311
  O        39.4567089866       35.2436781916        19.991836587238
  O        19.1410609136        0.0042892559       11.9905434391
  O        41.9692688758       35.1723039816        20.076847662338
  O        21.6911817889       -0.0693568134       11.8959940440
  O        51.3651797759       18.6144138637        19.995081018438
  O        10.7509010582       18.7471494208       11.9050037171
  O        50.0794638432       16.4127832169        20.081529916138
  O         9.5243430096       16.4831089748       11.9912105206
 Zr         9.2970003770       16.0529078649        22.171983257338
 Zr        49.8363931206       16.0069201458        9.7465854091
 Zr        22.0732091894        0.0297845451        22.178933972238
 Zr        42.4608759382       35.1535534110        9.8011038859
 Zr        29.5657427638       19.0345765283        22.210414638238
 Zr        29.5664679330       19.1666502211        9.8277131543
 Zr        11.0377454365       19.0523351847        9.8278264268
 Zr        11.0437094121       19.1551736655        22.240915513038
 Zr        31.3234712284       16.0855957439        9.8539058159
 Zr        31.3481055249       15.9953717002        22.247954721238
 Zr        18.6011666208       -0.0015164779        9.7634503063
 Zr        18.5066005783       -0.0078938415        22.203401014238
 Zr        12.3014382769       16.3232870572        23.980301508338
 Zr        48.6162839899       18.8329546637        8.0101970832
 Zr        20.3153467914        2.4737330015        23.980404186838
 Zr        40.6430428734       32.6868939517        23.967946742938
 Zr        28.3154706284       16.3154947853        8.0843129126
 Zr        32.5996286979       18.8314865111        8.0206143944
  H        30.2852930409       16.2567488961        17.541138647938
