     569
 i =      166, E =     -4729.5370566808
  C        11.8585626672       14.0534760874        21.731352864338
  C        12.4560294012       12.8905258271        21.012983586838
  C        11.7044691256       12.1718081852        20.071070838038
  C        12.2808239702       11.1095793732        19.378730678038
  C        13.6212983238       10.7395615306        19.606694882438
  C        14.3543532586       11.4429160212        20.580407551738
  C        13.7814520095       12.5078878053        21.271907268238
  C        14.2608057421        9.6488674458        18.833332431738
  C        14.2561622033        9.6567904229        17.411633815238
  C        13.7431605010       10.7589780691        16.657708161038
  C        49.1265140417       21.2334264607        21.869583237238
  C        48.5496201958       22.4012382316        21.142519859938
  C        49.2996561251       23.0685348684        20.161499054438
  C        48.7326866490       24.1075738756        19.428212665838
  C        47.4021365932       24.5092052660        19.656817590138
  C        46.6711870316       23.8603720159        20.670370230138
  C        47.2336679933       22.8155451706        21.399814928638
  C        46.7719280155       25.5868661804        18.859486751538
  C        46.7610482361       25.5572843112        17.437724526038
  C        47.2610544330       24.4422238715        16.694231911438
  C        14.8599948418        8.5703794514        16.698393096738
  C        14.8914379555        8.5968399115        19.509997231438
  C        49.1129274843       21.2034574509       10.1453154573
  C        48.5275377676       22.3648218848       10.8723499515
  C        49.2667550617       23.0255053363       11.8653059427
  C        48.6904129817       24.0600259179       12.5967847081
  C        47.3600036442       24.4568160506       12.3585320135
  C        46.6396163864       23.8119599987       11.3349523152
  C        47.2131813905       22.7760864066       10.6031330490
  C        46.7215459629       25.5317449666       13.1495868133
  C        46.7333407893       25.5281231807       14.5712896301
  C        47.2488144362       24.4289327626       15.3276793249
  C        40.6142992596       17.0735223004       15.3135751238
  C        40.6300735792       17.1009528042       12.5034011284
  C        11.8827337584       14.0863653523       10.2855092599
  C        12.4718837562       12.9104088344       10.9896355328
  C        11.7144292145       12.1774409340       11.9159755209
  C        12.2809552649       11.0949659682       12.5844191249
  C        13.6196515406       10.7209371279       12.3523397353
  C        14.3575167999       11.4361955594       11.3912218541
  C        13.7921442501       12.5173809247       10.7185174738
  C        14.2532602630        9.6242104719       13.1227744641
  C        14.2521805041        9.6443145971       14.5446120080
  C        13.7425313138       10.7533807439       15.2916634226
  C        22.5099571863        3.2428008615        21.742867363938
  C        23.2222340957        4.3468264593        21.040635515538
  C        24.2159930858        4.0643195763        20.092092954738
  C        24.8412229518        5.1024991324        19.407009864938
  C        24.4874934453        6.4441280248        19.651221289938
  C        23.5217750305        6.7182168005        20.636571199438
  C        22.8919925241        5.6818366953        21.320086585738
  C        25.0927667656        7.5493109947        18.875232969738
  C        25.0674293199        7.5422727173        17.453936351738
  C        24.3650200717        6.5438800126        16.706965620238
  C        38.2977182564       31.9275673416        21.841890268138
  C        37.5557656978       30.8388659641        21.141552462538
  C        36.5908750456       31.1455829100        20.169449332638
  C        35.9601977769       30.1275566110        19.459313946438
  C        36.2787450451       28.7760145066        19.697502022838
  C        37.2125583056       28.4768376647        20.707716569138
  C        37.8472742597       29.4938232903        21.417357520538
  C        35.6687025071       27.6877073519        18.898404656938
  C        35.7094357371       27.7023706109        17.476638269238
  C        36.4234800047       28.7024167393        16.743746476238
  C        25.6928087714        8.6115514830        16.735359773038
  C        25.6880322742        8.6239051789        19.547289154438
  C        38.3301874209       31.9598648254       10.1610259969
  C        37.6142210004       30.8866683809       10.9111832778
  C        36.6822585161       31.1958967950       11.9142107580
  C        36.0727365386       30.1789885099       12.6474285868
  C        36.3794383115       28.8250170459       12.4028267182
  C        37.2923690961       28.5257713725       11.3724961373
  C        37.9037682419       29.5391972974       10.6402874485
  C        35.7639580308       27.7265786091       13.1850727875
  C        35.7578259108       27.7224719274       14.6079404551
  C        36.4451480524       28.7131287341       15.3773275549
  C        46.1353012762       26.6207424883       15.2814225149
  C        46.0875063094       26.5800499770       12.4735329290
  C        22.4602248320        3.2545454973       10.2559384591
  C        23.1546532577        4.3630952193       10.9771298806
  C        24.1596476877        4.0767317680       11.9144378114
  C        24.7877480730        5.1070395405       12.6094145539
  C        24.4299037932        6.4519628968       12.3890721963
  C        23.4482860391        6.7318076955       11.4199232969
  C        22.8156892491        5.7016969372       10.7253094408
  C        25.0597813583        7.5491496933       13.1637106490
  C        25.0510233305        7.5417034612       14.5860408030
  C        24.3551472888        6.5448949609       15.3404145732
  C        26.5494473248       17.8502820866        21.782319672338
  C        25.2464484979       17.8943652135        21.056188112138
  C        24.9861790636       18.9000414559        20.112544425338
  C        23.7807440859       18.9144484584        19.415763850238
  C        22.8019804711       17.9273732485        19.644884754538
  C        23.0558782944       16.9454321334        20.620186891838
  C        24.2643389486       16.9249159355        21.313285203738
  C        21.5377834974       17.9113853020        18.871741910038
  C        21.5488059671       17.9012047126        17.450293185238
  C        22.7603248525       17.7849903717        16.698286467738
  C        34.4152891287       17.2217986179        21.903009765238
  C        35.7071143108       17.1540148474        21.157431098838
  C        35.9063433308       16.1777501157        20.168124674938
  C        37.0895515454       16.1504471692        19.433812684738
  C        38.1064258310       17.0977527083        19.667109402738
  C        37.9083652244       18.0543248421        20.681352197038
  C        36.7237053777       18.0865959454        21.413916831338
  C        39.3625061047       17.0959244748        18.880861350538
  C        39.3580740923       17.0987014658        17.458488863138
  C        38.1509897912       17.2143258757        16.699596059338
  C        20.3071374487       17.9242260311        16.735181758138
  C        20.3111688197       17.9066982631        19.547591042838
  C        34.4344939215       17.2387929618       10.1862803489
  C        35.7363167773       17.1386990594       10.9103435523
  C        35.9452049055       16.1510505945       11.8845695669
  C        37.1366541977       16.1164298098       12.6056343860
  C        38.1484957990       17.0690952190       12.3742460106
  C        37.9454997864       18.0304707122       11.3663418450
  C        36.7538664134       18.0693021949       10.6477165048
  C        39.3983146078       17.0816976780       13.1684453294
  C        39.3765807831       17.0920695772       14.5901728997
  C        38.1593880345       17.2090683118       15.3329938214
  C        35.1176155266       26.6457967196       15.3082158892
  C        35.1793625480       26.6542831829       12.4982032770
  C        26.5705137731       17.8277111831       10.3261166574
  C        25.2559316782       17.8779409580       11.0294917003
  C        24.9912165321       18.8879805256       11.9664852111
  C        23.7732531971       18.9157231839       12.6396055134
  C        22.7917405723       17.9347166589       12.3959848893
  C        23.0504106280       16.9501473600       11.4256139299
  C        24.2695215853       16.9193396845       10.7522299748
  C        21.5258825430       17.9189037841       13.1634223711
  C        21.5422578716       17.9040006867       14.5843164937
  C        22.7567495833       17.7857322082       15.3321292815
  C        14.0456854782       17.8321921915       10.2832544400
  C        15.3530105500       17.8968132689       10.9985838896
  C        15.6129840293       18.9092002529       11.9349033563
  C        16.8243222661       18.9344973739       12.6222455037
  C        17.8065642015       17.9502615885       12.3936894814
  C        17.5528357186       16.9640191564       11.4225290706
  C        16.3410392425       16.9342348019       10.7366479075
  C        19.0718561986       17.9312109074       13.1653337338
  C        19.0610577311       17.9203904104       14.5867146990
  C        17.8483888584       17.8191468793       15.3386641904
  C        46.8019571928       17.2170806265       10.1584961046
  C        45.5093235256       17.1482671743       10.9019967086
  C        45.3051716588       16.1652183519       11.8830722088
  C        44.1216912854       16.1369064728       12.6166310907
  C        43.1101181851       17.0914680196       12.3925332386
  C        43.3115390478       18.0543318316       11.3847206305
  C        44.4959744143       18.0864630351       10.6518501399
  C        41.8552726212       17.0923166557       13.1812804354
  C        41.8609512469       17.0907001624       14.6039307815
  C        43.0694060807       17.1896076450       15.3631046610
  C        20.3032679403       17.9254680316       15.3015389599
  C        20.2984971977       17.9123007715       12.4893652512
  C        46.7822480997       17.2314452402        21.876803382538
  C        45.4779369479       17.1235713981        21.159852504838
  C        45.2581605332       16.1206331807        20.203013622538
  C        44.0688806895       16.0882877511        19.478104402738
  C        43.0673328438       17.0558208773        19.691279137638
  C        43.2781611693       18.0296749248        20.685679265138
  C        44.4685908261       18.0681434979        21.406038461638
  C        41.8187598715       17.0707710913        18.894652947438
  C        41.8422995450       17.0778916554        17.472834918738
  C        43.0606784439       17.1803992961        16.729952858638
  C        46.1530618633       26.6371711127        16.715966477738
  C        46.1619143696       26.6559526520        19.525607437238
  C        14.0378944804       17.8262734804        21.695258007238
  C        15.3496910290       17.8900508464        20.992149873938
  C        15.6202046585       18.9089624782        20.067165697938
  C        16.8430310755       18.9407352634        19.402365780938
  C        17.8186767368       17.9524725713        19.639115401938
  C        17.5537180701       16.9592821579        20.598718267038
  C        16.3331195895       16.9270706679        21.267145885338
  C        19.0845778944       17.9301381599        18.872751303538
  C        19.0678430810       17.9188729252        17.452058928238
  C        17.8517538711       17.8181428381        16.704628356738
  C        28.8066605012       14.0864387381       10.3928281768
  C        28.1942638061       12.9132474989       11.0781576138
  C        28.9196942246       12.1673069368       12.0187025628
  C        28.3203266503       11.0920973393       12.6691851203
  C        26.9819219112       10.7398317891       12.4027604751
  C        26.2780287785       11.4658304168       11.4254426095
  C        26.8750792691       12.5413793059       10.7734273968
  C        26.3130156008        9.6600292787       13.1630356730
  C        26.3015363774        9.6847910594       14.5838256327
  C        26.8085888600       10.7955479719       15.3301582698
  C        32.1771844575       21.2356635319       10.1496774985
  C        32.7730043668       22.4004716562       10.8705528706
  C        32.0203915379       23.0887324087       11.8349535188
  C        32.5899857027       24.1287797409       12.5634833849
  C        33.9287886676       24.5106381160       12.3496516170
  C        34.6643177290       23.8415632158       11.3529382180
  C        34.0969897458       22.7958959405       10.6261794206
  C        34.5547604774       25.5868083005       13.1533962695
  C        34.5312265232       25.5618682727       14.5755937069
  C        34.0123738655       24.4496738970       15.3112134133
  C        25.6890594875        8.6077550012       15.3012436721
  C        25.6753665509        8.6112149940       12.4883599525
  C        32.0702961936       21.1976025651        21.870726016938
  C        32.6402671305       22.3640756051        21.131689568238
  C        31.9086161517       23.0080241331        20.121936781738
  C        32.4812009292       24.0481783408        19.391387700338
  C        33.7997183592       24.4741124087        19.649003792238
  C        34.5117031471       23.8439231564        20.688256609838
  C        33.9443899761       22.8008061831        21.415017344438
  C        34.4420246937       25.5579586309        18.867157225438
  C        34.4724892890       25.5475533127        17.444412405638
  C        33.9832841904       24.4432543857        16.677782462638
  C        40.6045627098       17.0718391116        16.749001097438
  C        40.5872303564       17.0977107104        19.559684835138
  C        28.7325407682       14.0688018872        21.775447121338
  C        28.1221085204       12.9190099115        21.048384108738
  C        28.8622185089       12.2068232604        20.091819472338
  C        28.2801827340       11.1479672242        19.400565685338
  C        26.9431951815       10.7746768243        19.642199936838
  C        26.2208918636       11.4713385322        20.628898627838
  C        26.8009368489       12.5315401946        21.321932180038
  C        26.3018753868        9.6847604779        18.870361413238
  C        26.2973636137        9.6977077648        17.448916776738
  C        26.8045269209       10.8029701460        16.695896108338
  C        18.1352444936        3.1807391105       10.3171747473
  C        17.4057715302        4.2779442144       11.0157694300
  C        16.3901223051        3.9994799379       11.9433210748
  C        15.7422740491        5.0393986178       12.6068125852
  C        16.0939933867        6.3831539958       12.3670687387
  C        17.0832512970        6.6527848024       11.4032054599
  C        17.7324374751        5.6155008782       10.7381546963
  C        15.4696322887        7.4908315487       13.1301125065
  C        15.4850233573        7.4902307223       14.5518238461
  C        16.1865566523        6.4966086764       15.3050049369
  C        42.9457374237       31.8594126273       10.0728108848
  C        43.6460361306       30.7717320101       10.8167670956
  C        44.5917125260       31.0930409410       11.8026990449
  C        45.1973562624       30.0874731188       12.5503687560
  C        44.8707146706       28.7344450408       12.3356325164
  C        43.9447102144       28.4201268408       11.3225836693
  C        43.3359431092       29.4252832418       10.5745256904
  C        45.4883105534       27.6551604517       13.1388212508
  C        45.4925512176       27.6808435091       14.5605081858
  C        44.8054633121       28.6889018328       15.3071144364
  C        14.8561552960        8.5627916023       15.2641704754
  C        14.8743205782        8.5625721830       12.4515066946
  C        42.9463557815       31.9614600104        21.798781760138
  C        43.6914871356       30.8853259615        21.085260302238
  C        44.6563404149       31.1912323318        20.113215616238
  C        45.2777563860       30.1716382570        19.395416898338
  C        44.9536432304       28.8213561996        19.632786632338
  C        44.0198253504       28.5236938123        20.643246208538
  C        43.3916508881       29.5404616147        21.355495805538
  C        45.5626896167       27.7239645589        18.847534822838
  C        45.5330549268       27.7173124193        17.426243133238
  C        44.8267495305       28.7075558081        16.673296927038
  C        35.0901489490       26.6370838936        16.743773294938
  C        35.0522585327       26.6157087116        19.554222464938
  C        18.1483963284        3.2468194981        21.696385107438
  C        17.4296610028        4.3436304323        20.987120675138
  C        16.4144895700        4.0523070825        20.063536873038
  C        15.7661336991        5.0829129942        19.388132545838
  C        16.1207011461        6.4281662908        19.610896535538
  C        17.1119859164        6.7115982994        20.568237245338
  C        17.7596796434        5.6827136029        21.248021162738
  C        15.4902377560        7.5238734517        18.838435818838
  C        15.4961417469        7.5072435008        17.417300425838
  C        16.1928199164        6.5054778668        16.670609068038
  H        10.6724107852       12.4660955840        19.893891434538
  H        11.6945932753       10.5512264398        18.652044744438
  H        15.3912956402       11.1681144784        20.762340581938
  H        14.3507970145       13.0708724029        22.007621654338
  H        13.3763196769       11.6311893486        17.190993311238
  H        50.3223742003       22.7485211440        19.976781865938
  H        49.3191544775       24.6228271729        18.670614474338
  H        45.6416931384       24.1611495388        20.853532840338
  H        46.6626510300       22.2903529727        22.161944194038
  H        47.6295875840       23.5758388494        17.235904925038
  H        14.8717006946        8.5880553743        20.598302852038
  H        50.2867858433       22.7026374445       12.0602527256
  H        49.2687826470       24.5754663533       13.3603136524
  H        45.6102192749       24.1092165376       11.1458699225
  H        46.6523419834       22.2539638444        9.8315544291
  H        47.6076204855       23.5518165842       14.7967974015
  H        40.6358153758       17.0708778815       11.4154537236
  H        48.6870042677       14.0951505401        23.789772772438
  H        10.6810666112       12.4667579693       12.0936119457
  H        11.6892191759       10.5247582249       13.2973124626
  H        15.3928591082       11.1581026670       11.2050986162
  H        14.3644534870       13.0865894720        9.9898395193
  H        13.3758192255       11.6220289295       14.7530049735
  H        47.9300642372       14.2183073006        9.7108294915
  H        47.7798772963       14.3738182967        22.485071852338
  H        49.0822527821       18.5521113441       10.8670095265
  H        10.4156411922       14.1343367315        7.9988563876
  H        24.4756099183        3.0251907285        19.902569406438
  H        25.6126215960        4.8845947184        18.671586940138
  H        23.2421893628        7.7516812297        20.830360296038
  H        22.1238877924        5.8824979498        22.062940091938
  H        23.8025204915        5.7875280102        17.246556281538
  H        36.3600008343       32.1896953661        19.971818915738
  H        35.2131347037       30.3707004278        18.706896110438
  H        37.4665894889       27.4365790833        20.900717861738
  H        38.5937421058       29.2685805218        22.175445168938
  H        36.9855016298       29.4517127483        17.293534479938
  H        25.7204249866        8.6072359729        20.635169125038
  H        36.4544266165       32.2401229528       12.1161209436
  H        35.3435490317       30.4269062180       13.4156139229
  H        37.5436617493       27.4855836858       11.1758409900
  H        38.6288692757       29.3103794698        9.8630109498
  H        37.0246597047       29.4702665005       14.8568700917
  H        46.1088168123       26.5874167710       11.3854952336
  H        44.6681619258       35.1160704880        23.803782144638
  H        24.4387943818        3.0385541057       12.0794509621
  H        25.5707154321        4.8795157785       13.3296608879
  H        23.1614825221        7.7662145455       11.2418513182
  H        22.0415831696        5.9132181019        9.9913134099
  H        23.7845209889        5.7897863755       14.8075827533
  H        44.9534522560       34.3899911954        9.6949163318
  H        44.9016433589       34.2066698492        22.480479013738
  H        40.6656905911       33.2085480150       10.8530381137
  H        23.1502794512        1.9573279755        8.0049866363
  H        25.7387494098       19.6661153629        19.941531304138
  H        23.5807144480       19.6983317242        18.688441642938
  H        22.3080636878       16.1765638832        20.803315184538
  H        24.4762705358       16.1542123154        22.050571175138
  H        23.6975518214       17.6639403727        17.233894214638
  H        35.1185625819       15.4501081253        19.985106862938
  H        37.2424699669       15.3842648109        18.676788295838
  H        38.6834686656       18.7951775332        20.866533700238
  H        36.5567851091       18.8398421992        22.180547803838
  H        37.2120066653       17.3415086081        17.230479150038
  H        20.3116161361       17.9386067266        20.635634008638
  H        35.1559140583       15.4274328613       12.0750336824
  H        37.2958518893       15.3467824154       13.3577830929
  H        38.7188120116       18.7731302198       11.1811305530
  H        36.5780658243       18.8298484236        9.8907596054
  H        37.2267334819       17.3304199046       14.7895637609
  H        35.1633985094       26.6777388246       11.4101828914
  H        28.4971141257       21.0733532689        23.879689194338
  H        25.7523258692       19.6437151838       12.1470315026
  H        23.5659338211       19.7021810956       13.3621141598
  H        22.2990862231       16.1870576221       11.2329647890
  H        24.4868501202       16.1480492485       10.0172687321
  H        23.6912848407       17.6650453672       14.7923894786
  H        29.0277112202       21.7091739633        9.7276134599
  H        29.2083245815       21.6930295296        22.556880683838
  H        32.0617296400       18.5548605124       10.9988852242
  H        27.3691046493       19.0163952925        8.0771542625
  H        14.8548112396       19.6693167475       12.1093172863
  H        17.0243652909       19.7229970415       13.3445736511
  H        18.3033131021       16.1979486917       11.2386934396
  H        16.1300223479       16.1599111341       10.0030125331
  H        16.9092918737       17.7099539816       14.8041694106
  H        46.0913620589       15.4360968938       12.0644471202
  H        43.9664087721       15.3662531376       13.3685225600
  H        42.5399522928       18.8003569642       11.2058365932
  H        44.6654051692       18.8447229340        9.8908334390
  H        44.0109254898       17.3051134590       14.8337693453
  H        20.2984615534       17.9456708075       11.4013430660
  H        46.0350990594       15.3797123458        20.028627174638
  H        43.9034801530       15.3088431457        18.737446865338
  H        42.5118307623       18.7825730938        20.858116063638
  H        44.6499043963       18.8392234209        22.150875698838
  H        43.9955827092       17.2876946314        17.272382363538
  H        46.1986315813       26.6824695778        20.613057159638
  H        52.7412563316       21.0626853795        8.1946216729
  H        14.8632888707       19.6693693947        19.888431273838
  H        17.0567756589       19.7338623716        18.689144511138
  H        18.3009653282       16.1906989252        20.784954407438
  H        16.1099661045       16.1502789891        21.994374250538
  H        16.9151552052       17.7081132407        17.243060059638
  H        52.3226808503       21.6737609767        22.284408456538
  H        52.0137502188       21.7027784018        9.4955047035
  H        49.0669817556       18.6077973026        21.194117887038
  H        13.2470718256       19.0163011998        23.965425188738
  H        29.9503553892       12.4452201076       12.2267326185
  H        28.8834105955       10.5123282303       13.3973463747
  H        25.2436985308       11.2030049799       11.2134117979
  H        26.3295216740       13.1243398992       10.0355257244
  H        27.1753382553       11.6632789841       14.7902224126
  H        30.9913539594       22.7840916458       12.0090365538
  H        31.9999737968       24.6598878042       13.3072262681
  H        35.7004759617       24.1257690411       11.1808818000
  H        34.6716877879       22.2554406716        9.8774890047
  H        33.6611208786       23.5797788068       14.7635803542
  H        25.7046295585        8.5932493930       11.4003336349
  H        30.8962177766       22.6701660764        19.911643356138
  H        31.9052822699       24.5463241539        18.614486251538
  H        35.5321611376       24.1593674077        20.895639525938
  H        34.5028028989       22.2936990247        22.198255051038
  H        33.6098912339       23.5679714640        17.201830583538
  H        40.5808624393       17.0680930951        20.647662229038
  H        32.5099300646       14.1505910856        8.2583885017
  H        29.8959901632       12.4918466109        19.910637055738
  H        28.8599523640       10.5915089380        18.667339898538
  H        25.1866553568       11.1935464660        20.821448451938
  H        26.2407928909       13.0868900688        22.070501332938
  H        27.1664446926       11.6769770185        17.229521099238
  H        33.2941511082       14.2036841405        22.423060275538
  H        33.4042965692       14.4190544642        9.6010832828
  H        32.0425928639       18.5260076376        21.089520201138
  H        30.2049197250       14.1474040688        8.0811243238
  H        16.1182193111        2.9629393516       12.1297722344
  H        14.9528603479        4.8199145168       13.3224839688
  H        17.3654722199        7.6857022636       11.2100075212
  H        18.5143200580        5.8182013180       10.0101549052
  H        16.7530028396        5.7391848557       14.7715089596
  H        44.8281154736       32.1401103900       11.9767785011
  H        45.9373225416       30.3411643993       13.3062331683
  H        43.6817943209       27.3780879232       11.1526284329
  H        42.5991727457       29.1899771774        9.8099960832
  H        44.2300616521       29.4366249978       14.7687984605
  H        14.8504250156        8.5457073587       11.3632903544
  H        44.9000963597       32.2338998498        19.921975438638
  H        46.0248291573       30.4128102928        18.642328859938
  H        43.7624795548       27.4840008937        20.834488899138
  H        42.6448208595       29.3176832653        22.113623648038
  H        44.2682011317       29.4704079103        17.207890009938
  H        35.0025990107       26.6289518086        20.641420803138
  H        36.6051457889       35.1338680123        8.1806910579
  H        16.1434944719        3.0127095741        19.893772408738
  H        14.9738427903        4.8560058409        18.678026866438
  H        17.3953724046        7.7470881395        20.745186490538
  H        18.5424656041        5.8931723274        21.972875539138
  H        16.7641670780        5.7551808650        17.209058307238
  H        36.2785736069       34.4822043019        22.263146036638
  H        36.3804196480       34.2091429529        9.4997828062
  H        40.5785860229       33.2013714751        21.144223978838
  H        17.4706585924        1.9469386307        23.963826704938
  H        29.2864378947       19.4280459583       12.6245084564
  H        28.7578050692       19.0103867858        19.743374752138
  H        30.5775535166       15.4983529023        19.802613313838
  H        31.1407688941       15.5235264710       12.4666046698
  H        28.2591796479       18.0479051725       14.7039873693
  H        29.3052720634       15.6374236191       14.7061927192
  H        32.0320913359       15.9401728800        18.348182531638
  H        18.8536332011        0.8689448947       12.3352046084
  H        40.5281228969       35.2290995721        19.942030485938
  H        42.3227903443       34.4177749572        19.580935608738
  H        22.0877540382        0.6920428269       12.3514534384
  H        11.5969374824       18.7124719602       12.3824659086
  H        52.2649090059       18.4314182783        19.667611058938
  H        49.2551761491       16.4764594326        19.573891016638
  H        10.1497466213       15.7983600161       12.2928101968
  H        50.8500541605       17.6927705230        19.943791348838
  H        10.0457388657       17.3947307921       12.0518915872
  H        20.2150791706        0.0022028144       12.0419450345
  H        39.1835196137       36.1242574567        19.676116089738
 Ni        30.3908909529       17.6550350174        18.657050476538
 Ni        31.2411775488       16.0335257568       15.907518402538
 Ni        30.2212772768       18.0444708332        16.241206131338
 Ni        30.0615934433       17.3535796192       13.2429099215
  O        10.6498144622       14.3651894798        21.475591427238
  O        12.6130689862       14.6573289628        22.573672569538
  O        49.1474810355       16.8459558724        23.979459047438
  O        50.3500364976       20.9363483217        21.638074181638
  O        48.3484302660       20.5932240324        22.655778772138
  O        11.0507650899       17.0541038858        22.490398483338
  O        50.3207123614       20.8817070969       10.4069114066
  O        48.3466094200       20.5866539893        9.3270440936
  O        49.5432335288       18.2484384268       10.0683395100
  O        12.3586005286       18.6247159952        7.9998260863
  O        48.6931170195       14.1486957703        22.741037700138
  O         8.2098072715       14.2104678186        9.3225681049
  O        10.7352204370       14.5067691731       10.6643787413
  O        12.5716973200       14.5826636285        9.3285924994
  O        22.8441401324        2.0421683399        21.477288371838
  O        21.6047177480        3.5917513621        22.579965538438
  O        42.0578727703       34.1369153218        23.968785910938
  O        37.9813097025       33.1364393998        21.562203093138
  O        39.2174215403       31.5752658052        22.655626348338
  O        20.3082170378        1.0393225810        22.491639792938
  O        38.0241239484       33.1843340720       10.4159438998
  O        39.2182069988       31.5827285779        9.3276531719
  O        40.6521569255       33.7689894828       10.0602281984
  O        18.2556261108        1.3761567415        7.9967896014
  O        44.6222365040       35.1004795160        22.748554261838
  O        24.2053769520       -0.0000410694        9.3208146563
  O        22.7528004961        2.0570933224       10.5833261986
  O        21.6238118969        3.5953530859        9.3414875520
  O        27.4202151857       18.7492221896        21.491160933938
  O        26.6949903050       16.9249497191        22.651356920338
  O        30.6301970149       19.3455380357        8.0594287338
  O        33.5388275779       16.3296561286        21.643747537738
  O        34.2670071794       18.1796979101        22.733783642038
  O        29.5395840412       17.0071048317        22.559889421538
  O        33.5503690699       16.3386241466       10.4140622467
  O        34.2948401446       18.2389856340        9.4047018328
  O        31.6470728972       18.3118985117       10.1538931191
  O        30.2975667811       15.1137305732        8.0792467821
  O        28.5485363655       21.0273302252        22.827319232438
  O        28.5156364419       20.9475688925        9.4060051431
  O        27.4576878430       18.6791995060       10.6586049698
  O        26.6918170891       16.9266829029        9.4171829300
  O        13.1469893737       18.6936257027       10.5862552288
  O        13.9177417757       16.9158466742        9.4037642833
  O        50.5955030210       19.3502490796        8.0207876600
  O        47.6821430206       16.3272960639       10.4175317074
  O        46.9497660863       18.1755582456        9.3258714948
  O        11.0686682836       17.0160794439        9.4896582158
  O        47.6738137625       16.3361170867        21.642218804638
  O        46.9244032217       18.2359264328        22.652688242438
  O        49.5685193825       18.3177531307        21.972096619938
  O        10.3184493308       15.1002053916        7.9971400835
  O        52.6706844834       21.0279878311        9.2418105285
  O        12.1467955785       20.8914169877        22.663137746538
  O        13.1042807113       18.6140935562        21.316187468238
  O        13.9542095059       16.9859255825        22.655816707738
  O        29.9915421090       14.4375640953       10.7287504545
  O        28.0868809165       14.6511864080        9.4973568755
  O        32.0700995288       16.8584554336        8.0644333526
  O        30.9611158060       20.9465658505       10.4114919320
  O        32.9414350420       20.6004722458        9.3373908836
  O        29.5587182797       17.0695167602        9.5717906056
  O        30.8463459249       20.8832113178        21.651422699738
  O        32.8665728187       20.5787516685        22.656151319338
  O        31.6076195787       18.2412523116        21.909968844738
  O        28.2580049072       18.6255346872        8.0712494593
  O        32.4908598032       14.2134497021        9.3290492735
  O        32.4019036196       14.2188757092        22.807769329238
  O        29.9040017135       14.4455962614        21.408031079638
  O        28.0462997967       14.5799312084        22.726563140338
  O        17.8891490153        1.9664435998       10.6628394006
  O        18.9561127151        3.5270763813        9.4080562780
  O        39.1685249129       34.1386292645        7.9971572731
  O        43.2801579313       33.0588680117       10.3316567633
  O        42.0343645144       31.5064367686        9.2415792611
  O        20.3172237788        1.0362308024        9.4803950023
  O        43.2760866015       33.1824704285        21.564685054438
  O        42.0052123070       31.5841320923        22.572832914538
  O        40.5790849674       33.7750004598        21.925670501238
  O        22.3670759529        1.3842650543        7.9979642165
  O        36.6727783734       35.0996359243        9.2333524004
  O        16.4455833717        0.0641317630        22.658081401538
  O        17.9364033567        2.0432346733        21.316190080638
  O        18.9188813397        3.5931073253        22.655673364038
  O        29.6547416439       18.8205694653        20.072149475838
  O        29.8256259158       18.8352814096       12.0695963927
  O        31.2601393944       16.1941697525        19.902383247938
  O        31.2182632530       16.4063401239       12.0553936022
  O        32.4455642452       15.8920720328        17.410198525738
  O        30.2151328265       15.8246020953       14.4063910702
  O        29.1917550919       18.3170921656       14.6416854933
  O        39.4568332558       35.2437408481        19.991789541838
  O        19.1416838449        0.0045282522       11.9904961051
  O        41.9695745293       35.1726357025        20.076915848238
  O        21.6913329589       -0.0694340082       11.8959508121
  O        51.3648400804       18.6144353650        19.995078571938
  O        10.7511046022       18.7471294998       11.9050329263
  O        50.0794180257       16.4127331209        20.081537427238
  O         9.5239256508       16.4832234519       11.9912141290
 Zr         9.2966181048       16.0529906685        22.171927006638
 Zr        49.8360193380       16.0070341966        9.7466259406
 Zr        22.0730240461        0.0291104265        22.179014273838
 Zr        42.4606121687       35.1528703871        9.8006949771
 Zr        29.5578047617       19.0473413999        22.247200501138
 Zr        29.5649259133       19.1627559598        9.8783869240
 Zr        11.0374380562       19.0525423988        9.8278803964
 Zr        11.0432317793       19.1553410671        22.241159644038
 Zr        31.3243600852       16.0988749950        9.8763343139
 Zr        31.3755982209       16.0053616542        22.247113995838
 Zr        18.6006853895       -0.0023569100        9.7637049354
 Zr        18.5063204879       -0.0083308840        22.203211017538
 Zr        12.3007165076       16.3232489516        23.980554084838
 Zr        48.6157099549       18.8329289566        8.0102430115
 Zr        20.3142296674        2.4724632852        23.980346630538
 Zr        40.6424496600       32.6862389147        23.967977522938
 Zr        28.3241633772       16.3231515921        8.0845037487
 Zr        32.6004219027       18.8367577012        8.0547472171
  H        29.3220255016       17.9887721184        17.562852981238
  H        33.0445087774       16.6620712699        17.384742353638
  H        31.2524152220       18.2264738398        17.384220326738
