     562
 i =      146, E =     -4678.9239480066
  C        11.8586108694       14.0534469311        21.731302069238
  C        12.4560027445       12.8904475339        21.013052744738
  C        11.7043472307       12.1715543505        20.071320610638
  C        12.2806927925       11.1093028668        19.379011905738
  C        13.6212589121       10.7394068058        19.606736377638
  C        14.3543964892       11.4429683710        20.580251548338
  C        13.7815284699       12.5079625950        21.271755679638
  C        14.2607223483        9.6486891236        18.833323276738
  C        14.2556239470        9.6564130541        17.411611831338
  C        13.7423433162       10.7584707989        16.657689359238
  C        49.1265900120       21.2333457628        21.869601593938
  C        48.5497227022       22.4011579051        21.142526605138
  C        49.2997258820       23.0684151132        20.161448201438
  C        48.7327952108       24.1075137468        19.428214942938
  C        47.4022608430       24.5091955329        19.656836298138
  C        46.6713462026       23.8604210536        20.670456672938
  C        47.2337954872       22.8155446288        21.399848416538
  C        46.7720599723       25.5868798436        18.859531314538
  C        46.7611728713       25.5572922431        17.437767934838
  C        47.2611914559       24.4422507992        16.694252594738
  C        14.8593790598        8.5699859485        16.698306557638
  C        14.8917560163        8.5968441639        19.509923638338
  C        49.1129440528       21.2034528182       10.1453736097
  C        48.5276459420       22.3649194960       10.8722900466
  C        49.2668153925       23.0253848307       11.8654335388
  C        48.6905329893       24.0599319461       12.5969177801
  C        47.3602274794       24.4569824244       12.3585024612
  C        46.6399202085       23.8123574291       11.3347100747
  C        47.2134119928       22.7764573687       10.6028740766
  C        46.7217755613       25.5318780447       13.1496007881
  C        46.7335059614       25.5281838422       14.5713082289
  C        47.2489759282       24.4289895466       15.3276975188
  C        40.6025018732       17.0916103472       15.3083145478
  C        40.6027463565       17.1023920062       12.4965203194
  C        11.8824984518       14.0863432988       10.2854993926
  C        12.4714347535       12.9103180411       10.9895888453
  C        11.7138472142       12.1774606476       11.9159345905
  C        12.2801663182       11.0948554513       12.5843293938
  C        13.6187994990       10.7205555992       12.3522638944
  C        14.3567822900       11.4357056777       11.3911405519
  C        13.7916292339       12.5170216436       10.7184657610
  C        14.2522593588        9.6237360007       13.1226983782
  C        14.2511354837        9.6437728974       14.5445448150
  C        13.7414873130       10.7528071020       15.2916427375
  C        22.5034355656        3.2434459300        21.733117492738
  C        23.1990780286        4.3457128042        21.010338862238
  C        24.1952982320        4.0617785283        20.064491358038
  C        24.8141012843        5.0974578088        19.369204703538
  C        24.4518815849        6.4396141582        19.598997367938
  C        23.4771397934        6.7150354151        20.575585586138
  C        22.8546183968        5.6812695136        21.270029732238
  C        25.0674999901        7.5443885822        18.829257981038
  C        25.0781316498        7.5334182400        17.407808174038
  C        24.3944073041        6.5331115488        16.647002253038
  C        38.3011688448       31.9264884441        21.837700940538
  C        37.5686088339       30.8364688416        21.128202737738
  C        36.6081273565       31.1409648273        20.150976045838
  C        35.9859291838       30.1219400461        19.434119273038
  C        36.3076809430       28.7708635992        19.671399394238
  C        37.2388135283       28.4739508441        20.684953674738
  C        37.8653690834       29.4918087464        21.400669720638
  C        35.7000958463       27.6796581189        18.873717894138
  C        35.7340887035       27.6924898358        17.451581899438
  C        36.4415138215       28.6933975320        16.713847335938
  C        25.7205765169        8.6010299573        16.701394519638
  C        25.6445364189        8.6225507495        19.512084136638
  C        38.3270836460       31.9601381064       10.1567817964
  C        37.6032355996       30.8856261615       10.8972899281
  C        36.6731963480       31.1926026069       11.9026256634
  C        36.0602492654       30.1734576394       12.6297039733
  C        36.3618609735       28.8200161824       12.3763768430
  C        37.2695355850       28.5231594741       11.3408298299
  C        37.8846154608       29.5388240064       10.6148702380
  C        35.7516481740       27.7199242416       13.1601481259
  C        35.7606366497       27.7128236924       14.5828705976
  C        36.4534913549       28.7036618182       15.3471070556
  C        46.1354323240       26.6207747160       15.2814610294
  C        46.0877859862       26.5802341285       12.4735698317
  C        22.4751880035        3.2562888430       10.2488346432
  C        23.2021094573        4.3609754620       10.9479808481
  C        24.2133162963        4.0651727663       11.8765360865
  C        24.8674472881        5.0890295373       12.5581390554
  C        24.5319951349        6.4396525077       12.3350427103
  C        23.5487545273        6.7286230371       11.3697496626
  C        22.8899979495        5.7048602707       10.6878939371
  C        25.1705771354        7.5302480878       13.1169080430
  C        25.1307805614        7.5256923778       14.5396882162
  C        24.4157350686        6.5321247533       15.2805468152
  C        26.5570376486       17.8287318380        21.777667234338
  C        25.2566907327       17.8899731797        21.052601690538
  C        25.0069759346       18.8981686699        20.108802171538
  C        23.7995958552       18.9267829842        19.415575128238
  C        22.8100650171       17.9505825403        19.646204500638
  C        23.0548038040       16.9661452859        20.621712447038
  C        24.2635903603       16.9323137061        21.313051144138
  C        21.5450555821       17.9429443615        18.873838294438
  C        21.5542549262       17.9339665749        17.451958086638
  C        22.7646210453       17.8199140742        16.697739948538
  C        34.4179998608       17.2186875542        21.903902840738
  C        35.7148149780       17.1541544109        21.166662768238
  C        35.9081154320       16.1932666131        20.161698360138
  C        37.0917556611       16.1695437651        19.428418775738
  C        38.1145706021       17.1067861567        19.675671978338
  C        37.9234241447       18.0466667539        20.707096962538
  C        36.7382826960       18.0748004946        21.439483315238
  C        39.3673097013       17.1123534241        18.883333518638
  C        39.3569242105       17.1227876328        17.460539720438
  C        38.1468592201       17.2483884523        16.708505142738
  C        20.3109002397       17.9538828262        16.739047560438
  C        20.3190517627       17.9368576657        19.551483989538
  C        34.3633508137       17.1847669423       10.2645016857
  C        35.6716337913       17.0980873211       10.9725369767
  C        35.9042613533       16.1264072103       11.9588022853
  C        37.1094533361       16.1079468219       12.6569233185
  C        38.1147562384       17.0597444933       12.3916156300
  C        37.8890492429       18.0013841919       11.3694106777
  C        36.6840395105       18.0246704617       10.6727716967
  C        39.3746539572       17.0882743645       13.1703210757
  C        39.3606807787       17.1110141663       14.5924309522
  C        38.1487498835       17.2408094655       15.3419060035
  C        35.1294557632       26.6336926889       15.2870043169
  C        35.1604457330       26.6490513188       12.4773176802
  C        26.5632366880       17.8227835285       10.3284717653
  C        25.2513445034       17.8772425529       11.0305856989
  C        24.9782993381       18.9039921783       11.9471994773
  C        23.7602453942       18.9343812237       12.6195663499
  C        22.7876215325       17.9403552465       12.3953650032
  C        23.0537406882       16.9393043841       11.4438459985
  C        24.2728199315       16.9050024243       10.7712210101
  C        21.5228724588       17.9285054583       13.1649341856
  C        21.5423801535       17.9256744763       14.5858958619
  C        22.7589147379       17.8160959164       15.3314783638
  C        14.0453486791       17.8319724101       10.2840022549
  C        15.3515706377       17.8966093627       11.0011863542
  C        15.6106252465       18.9108993102       11.9357803408
  C        16.8210426263       18.9375562726       12.6245998995
  C        17.8034524479       17.9525799720       12.3996909628
  C        17.5503304294       16.9638021559       11.4308200171
  C        16.3394939976       16.9328345785       10.7432145778
  C        19.0692648236       17.9378438385       13.1705012574
  C        19.0611405486       17.9371696986       14.5920923549
  C        17.8499409477       17.8384237003       15.3466727695
  C        46.7976916684       17.2160581062       10.1568784406
  C        45.4984790903       17.1450522311       10.8931784264
  C        45.2865383491       16.1616022900       11.8724808808
  C        44.0987722334       16.1340066817       12.6003870863
  C        43.0878617719       17.0895632092       12.3743479200
  C        43.2958600411       18.0508245295       11.3659746445
  C        44.4847681724       18.0823293696       10.6388089979
  C        41.8330117405       17.0963230293       13.1669995443
  C        41.8452138652       17.1020448181       14.5906126990
  C        43.0574982811       17.2005006443       15.3440540652
  C        20.3044875752       17.9488486535       15.3051830170
  C        20.2948605885       17.9142040509       12.4926339773
  C        46.7836284300       17.2332930442        21.874165332838
  C        45.4821426873       17.1303362255        21.151171887338
  C        45.2652497050       16.1331741298        20.187654449138
  C        44.0776551471       16.1044045141        19.459626290538
  C        43.0750374079       17.0699738870        19.676391868938
  C        43.2839710815       18.0392387418        20.675801981438
  C        44.4725007015       18.0740897255        21.399254379438
  C        41.8243103325       17.0863816673        18.883242125738
  C        41.8411152396       17.0953669718        17.461219357838
  C        43.0554300243       17.1945428977        16.711233178338
  C        46.1531505551       26.6371617747        16.716010876038
  C        46.1620541871       26.6559786344        19.525652363238
  C        14.0397704882       17.8289060440        21.696414810138
  C        15.3534392009       17.8996384840        20.996578494138
  C        15.6213403109       18.9217100295        20.074076035438
  C        16.8450789262       18.9605442230        19.411106516238
  C        17.8252079557       17.9762581183        19.646570624738
  C        17.5629820217       16.9803386968        20.604385530738
  C        16.3414415537       16.9412027171        21.271260108038
  C        19.0910666847       17.9592886068        18.879042164038
  C        19.0726362574       17.9475695541        17.458131647338
  C        17.8556378617       17.8429826996        16.712688806938
  C        28.8446839075       14.1187023378       10.3782559078
  C        28.2766123169       12.9324839204       11.0757572502
  C        28.9983512823       12.2320929093       12.0538279618
  C        28.4191564238       11.1403964183       12.6989542306
  C        27.1060275669       10.7259256653       12.3924583713
  C        26.4107477205       11.4083039854       11.3774872376
  C        26.9849757589       12.4977902990       10.7316222495
  C        26.4367513056        9.6377279925       13.1427513902
  C        26.3856466168        9.6682337888       14.5631642112
  C        26.8638414357       10.7853556243       15.3192086004
  C        32.1813040298       21.2359560183       10.1118152581
  C        32.7686126122       22.3977165811       10.8395030649
  C        32.0235564835       23.0548122513       11.8315759510
  C        32.5914464123       24.0915109714       12.5669572754
  C        33.9190386861       24.5011835885       12.3328111962
  C        34.6453136056       23.8608878305       11.3100483214
  C        34.0816192372       22.8184910951       10.5768958957
  C        34.5463689546       25.5771427054       13.1360963033
  C        34.5400730222       25.5481113572       14.5585595426
  C        34.0376449214       24.4310223762       15.2977655837
  C        25.7546317704        8.5922691000       15.2672564861
  C        25.8114554616        8.5867155812       12.4557845136
  C        32.0712899220       21.1923399983        21.830172225738
  C        32.6553222551       22.3564906146        21.099586689538
  C        31.9339138909       23.0024853025        20.083509824538
  C        32.5139237648       24.0431313873        19.360908778938
  C        33.8307856788       24.4665014047        19.630926869338
  C        34.5324408302       23.8351643046        20.676289720438
  C        33.9567935203       22.7920570136        21.396931429338
  C        34.4778721990       25.5471241975        18.849564047538
  C        34.5046595101       25.5335041062        17.426878857138
  C        34.0195595775       24.4245310763        16.664462075738
  C        40.5996964067       17.0924986848        16.744103942238
  C        40.5960482446       17.1104854106        19.554787476238
  C        28.6601177661       14.0564419796        21.809888806638
  C        28.0566977032       12.9101372367        21.070978190038
  C        28.8119264974       12.1991354804        20.125482303938
  C        28.2405405561       11.1447298705        19.418888405238
  C        26.8983690011       10.7732667771        19.633553677638
  C        26.1593993796       11.4695840957        20.608312852138
  C        26.7292284290       12.5259523558        21.316722441638
  C        26.2728900245        9.6830514521        18.848013798138
  C        26.3033529150        9.6914276914        17.426739936038
  C        26.8231018587       10.7973851941        16.684103443338
  C        18.1353849372        3.1809142759       10.3170706130
  C        17.4055968876        4.2780243305       11.0154308140
  C        16.3896296909        3.9993278979       11.9425923245
  C        15.7415581627        5.0390777179       12.6061226937
  C        16.0933283285        6.3828913699       12.3667720913
  C        17.0828992059        6.6527526596       11.4032985477
  C        17.7323810140        5.6156381516       10.7382346271
  C        15.4687562469        7.4904159333       13.1299266925
  C        15.4841272236        7.4897659836       14.5516553427
  C        16.1858023044        6.4962010973       15.3047785239
  C        42.9457362143       31.8595431961       10.0728480911
  C        43.6461087958       30.7718268821       10.8168089622
  C        44.5917187486       31.0931675317       11.8027879086
  C        45.1974169091       30.0876344801       12.5504780107
  C        44.8709076361       28.7345898407       12.3356780126
  C        43.9449794499       28.4202293039       11.3225743158
  C        43.3361596683       29.4253617010       10.5745153404
  C        45.4885223720       27.6553032897       13.1388627330
  C        45.4926758832       27.6808855775       14.5605569128
  C        44.8055623651       28.6889167063       15.3071759946
  C        14.8552590221        8.5622997611       15.2640665119
  C        14.8733921728        8.5621606277       12.4513823858
  C        42.9463854193       31.9615950307        21.798786408138
  C        43.6915170221       30.8853969620        21.085227724638
  C        44.6563881184       31.1912715275        20.113202733238
  C        45.2778450838       30.1716621104        19.395440756338
  C        44.9537349553       28.8213891825        19.632828068638
  C        44.0198888470       28.5237459676        20.643263644938
  C        43.3916910705       29.5405369985        21.355471290238
  C        45.5627814175       27.7239722676        18.847591568038
  C        45.5331348082       27.7172924912        17.426297005038
  C        44.8268173923       28.7075340163        16.673359769938
  C        35.1137625801       26.6248430568        16.722668888238
  C        35.0881440572       26.6069887848        19.533107022338
  C        18.1487783212        3.2468355919        21.696532578038
  C        17.4302254426        4.3437096785        20.987087183438
  C        16.4148555670        4.0523927149        20.063712543538
  C        15.7664540967        5.0829675138        19.388300910438
  C        16.1211971430        6.4282257690        19.610745816438
  C        17.1128219874        6.7116706371        20.567739815838
  C        17.7605441293        5.6828068548        21.247565069538
  C        15.4904537555        7.5238370631        18.838317629738
  C        15.4958543471        7.5070000574        17.417163900038
  C        16.1923734791        6.5051841158        16.670388056538
  H        10.6722255441       12.4656823040        19.894263412038
  H        11.6943840153       10.5508118437        18.652497772238
  H        15.3914132609       11.1683485969        20.762031749638
  H        14.3510141977       13.0710783949        22.007261239938
  H        13.3755744971       11.6307172843        17.190963084138
  H        50.3224389134       22.7483938642        19.976716270838
  H        49.3192807085       24.6227509737        18.670618826338
  H        45.6418911101       24.1612940265        20.853678195238
  H        46.6628100479       22.2904331684        22.162052686238
  H        47.6297722366       23.5758733123        17.235906248938
  H        14.8724464493        8.5882302104        20.598238006838
  H        50.2867683660       22.7023404656       12.0605013846
  H        49.2688961219       24.5752194069       13.3605550452
  H        45.6106383706       24.1098925907       11.1454396325
  H        46.6526404907       22.2545513509        9.8310999530
  H        47.6078399675       23.5518983156       14.7968154197
  H        40.6020853767       17.0640082629       11.4087014543
  H        48.6868902730       14.0952733952        23.789704178938
  H        10.6805254701       12.4669194387       12.0935575569
  H        11.6883197441       10.5247421515       13.2972050261
  H        15.3920798658       11.1574437031       11.2050155746
  H        14.3640872747       13.0860613696        9.9897742938
  H        13.3746826768       11.6214432375       14.7530290375
  H        47.9300057209       14.2186895882        9.7112489927
  H        47.7798639638       14.3737055424        22.484982922038
  H        49.0816604280       18.5516775007       10.8668794600
  H        10.4157775090       14.1344094561        7.9990346654
  H        24.4652211064        3.0230624887        19.887479726938
  H        25.5908699151        4.8768721310        18.640257584738
  H        23.1879761846        7.7480555407        20.757395079738
  H        22.0832310527        5.8846984905        22.008785292438
  H        23.8193722503        5.7778560214        17.174952717738
  H        36.3732379974       32.1845161075        19.954920829438
  H        35.2413086549       30.3643025240        18.679029310338
  H        37.4964246259       27.4343964985        20.877035531938
  H        38.6090873123       29.2675721482        22.161760921138
  H        37.0060898557       29.4437119103        17.259735120538
  H        25.6514484434        8.6084522235        20.600454828438
  H        36.4508515522       32.2365365230       12.1120837445
  H        35.3339891679       30.4192308820       13.4013384115
  H        37.5157428992       27.4831632207       11.1368915777
  H        38.6073335555       29.3123450228        9.8347140949
  H        37.0282621549       29.4614298963       14.8224430895
  H        46.1092040122       26.5877034069       11.3855345177
  H        44.6681411407       35.1160638718        23.804027186438
  H        24.4748417754        3.0235198813       12.0485244280
  H        25.6507744456        4.8505325356       13.2745260830
  H        23.2780569677        7.7664470668       11.1861317808
  H        22.1134424618        5.9275071450        9.9596450200
  H        23.8564107008        5.7765893346       14.7366495905
  H        44.9532350973       34.3896714163        9.6946440379
  H        44.9014704572       34.2068582002        22.480398135938
  H        40.6650763259       33.2085301427       10.8528791927
  H        23.1507563218        1.9578400949        8.0010263127
  H        25.7685299082       19.6545346064        19.933769156538
  H        23.6076370632       19.7128617737        18.688501181638
  H        22.2993979064       16.2049450193        20.805533206338
  H        24.4679167105       16.1591778799        22.049949648738
  H        23.7040114140       17.7018860639        17.230204308438
  H        35.1111788736       15.4810328906        19.960117226038
  H        37.2375722903       15.4164768882        18.657124819738
  H        38.7023854898       18.7803826711        20.904036635138
  H        36.5765895585       18.8183328934        22.216518679338
  H        37.2105004154       17.3840494935        17.242333964938
  H        20.3212234955       17.9668195525        20.639597507338
  H        35.1305004682       15.3922631421       12.1723605667
  H        37.2851387230       15.3507350652       13.4178819407
  H        38.6561196341       18.7427902649       11.1553177671
  H        36.4937479495       18.7699474766        9.9040783452
  H        37.2129238635       17.3702916754       14.8060596746
  H        35.1318120319       26.6764764338       11.3896326721
  H        28.5042506998       21.0815222826        23.863171969838
  H        25.7305381560       19.6714677299       12.1144604388
  H        23.5472361199       19.7318685661       13.3281218018
  H        22.3089624902       16.1661357043       11.2668809282
  H        24.4963378663       16.1202679279       10.0525435314
  H        23.6939376588       17.6958922821       14.7921642556
  H        28.9775964523       21.7235951659        9.7584479640
  H        29.2026140617       21.6967854059        22.536327565738
  H        32.1440006325       18.6284906769       10.9309121206
  H        27.3698048509       19.0295520150        8.0780872680
  H        14.8525983389       19.6718185456       12.1072549109
  H        17.0205480026       19.7281429482       13.3447876081
  H        18.3006835292       16.1969207219       11.2498438275
  H        16.1293286153       16.1567775820       10.0111517720
  H        16.9100114943       17.7254591938       14.8143985803
  H        46.0706413306       15.4313051112       12.0586464714
  H        43.9410310115       15.3633016793       13.3517937281
  H        42.5267771939       18.7984363310       11.1826864505
  H        44.6571707876       18.8413037756        9.8790849030
  H        43.9968615219       17.3122964676       14.8101688254
  H        20.2931315220       17.9382011845       11.4043743903
  H        46.0425609781       15.3930204519        20.011626382538
  H        43.9139446468       15.3282495792        18.715155110238
  H        42.5169171303       18.7908664684        20.850533402438
  H        44.6519092103       18.8411970798        22.148639402838
  H        43.9935186319       17.3007843263        17.248512077838
  H        46.1988214303       26.6825273759        20.613099791638
  H        52.7412828327       21.0627227497        8.1946245601
  H        14.8613363554       19.6790483927        19.895420036938
  H        17.0557536627       19.7561730179        18.699743585638
  H        18.3131554530       16.2145119480        20.790285972738
  H        16.1212772973       16.1617989664        21.996660932738
  H        16.9199373207       17.7334930766        17.252743172238
  H        52.3226965307       21.6737646890        22.284432424938
  H        52.0138975877       21.7028803825        9.4955334944
  H        49.0675636461       18.6081107941        21.193987661138
  H        13.2471478033       19.0163430717        23.965893069738
  H        30.0062946526       12.5602597772       12.2991354989
  H        28.9805200017       10.5976089823       13.4563415707
  H        25.3965826821       11.1005774486       11.1315591970
  H        26.4412373927       13.0437596914        9.9651230025
  H        27.2360579545       11.6566554092       14.7887708270
  H        31.0047266096       22.7263368921       12.0237953763
  H        32.0073473109       24.5984510309       13.3318797753
  H        35.6726662460       24.1658818378       11.1217738728
  H        34.6507606987       22.3020778488        9.8073798431
  H        33.6904455338       23.5572085353       14.7537899728
  H        25.8649654133        8.5669529829       11.3686162259
  H        30.9236764989       22.6654137697        19.862538606538
  H        31.9460552767       24.5429102524        18.579223032938
  H        35.5516251792       24.1485466278        20.892865162238
  H        34.5076333975       22.2836784228        22.184614279938
  H        33.6585625756       23.5455512584        17.190970263138
  H        40.5959098736       17.0752974473        20.642594138638
  H        32.5253383701       14.1506874859        8.1471345276
  H        29.8491087670       12.4827405439        19.963057124538
  H        28.8329165194       10.5906703910        18.694042270738
  H        25.1206707554       11.1948222511        20.779993907438
  H        26.1552468604       13.0807069736        22.055251935538
  H        27.1635342746       11.6769809042        17.222879853738
  H        33.2926025394       14.2473702696        22.348998938138
  H        33.4091593943       14.3036671596        9.5503324591
  H        32.0387160088       18.4879149848        21.070377000038
  H        30.2081735533       14.1386410603        8.0877141614
  H        16.1177002414        2.9627455871       12.1287535362
  H        14.9519786688        4.8194133211       13.3215561450
  H        17.3653094875        7.6856940773       11.2105066785
  H        18.5147108117        5.8185713711       10.0107778289
  H        16.7522109528        5.7387887067       14.7712198581
  H        44.8280268874       32.1402560705       11.9768985609
  H        45.9373427817       30.3413904257       13.3063628725
  H        43.6821896972       27.3781678538       11.1525625029
  H        42.5994289332       29.1900466729        9.8099502979
  H        44.2302089665       29.4366758160       14.7688569285
  H        14.8496497003        8.5454068883       11.3631616068
  H        44.9001619377       32.2339387041        19.921967493238
  H        46.0249566465       30.4128467003        18.642393361538
  H        43.7625819978       27.4840490334        20.834537066238
  H        42.6448837001       29.3178036147        22.113634245738
  H        44.2683031590       29.4704018032        17.207968141938
  H        35.0404152497       26.6225499953        20.620369984238
  H        36.6052306610       35.1338635623        8.1807098642
  H        16.1436490089        3.0128106735        19.894208757938
  H        14.9739540233        4.8560242064        18.678441860038
  H        17.3964480880        7.7471397155        20.744433463538
  H        18.5434461156        5.8933478233        21.972278068938
  H        16.7639473075        5.7550008501        17.208757450238
  H        36.2791311877       34.4818860643        22.263076387338
  H        36.3808007697       34.2091785130        9.4999121081
  H        40.5796686096       33.2026495726        21.143735913938
  H        17.4714351198        1.9473158564        23.963938704038
  H        28.7033818376       18.8014292973       12.2419987355
  H        28.7767876457       18.8427198885        19.699483513638
  H        30.7783206295       15.3579257577        19.761749645938
  H        32.4977677039       16.3687713769       12.7446906218
  H        18.8532502154        0.8690017415       12.3350804964
  H        40.5282016447       35.2289988025        19.941927857638
  H        42.3236091958       34.4187137990        19.580421226238
  H        22.0872774057        0.6922091003       12.3518833843
  H        11.5967405359       18.7126125335       12.3825389685
  H        52.2652153710       18.4312633316        19.667804980338
  H        49.2550450410       16.4765179116        19.574008027338
  H        10.1502397422       15.7982548369       12.2923927585
  H        50.8502695767       17.6928412857        19.943747230738
  H        10.0460184217       17.3948713637       12.0518886687
  H        20.2143038296        0.0020192134       12.0420809674
  H        39.1834409755       36.1241482536        19.676080997338
 Ni        30.4345994016       17.4789257010        18.654768928938
 Ni        31.1596983900       16.2327939842       14.736410445538
 Ni        30.0572605179       17.3544983419        16.241962295238
 Ni        30.6035259413       17.6705985626       12.9916004513
  O        10.6497786741       14.3651935825        21.475607228238
  O        12.6130006418       14.6574108525        22.573690901538
  O        49.1473797619       16.8459169070        23.979613259538
  O        50.3500710578       20.9361617168        21.638022243338
  O        48.3484258654       20.5931810783        22.655791718638
  O        11.0508799748       17.0540312503        22.490479603038
  O        50.3207228602       20.8816989392       10.4068471741
  O        48.3466048500       20.5866469692        9.3270533898
  O        49.5431353486       18.2483238080       10.0683689045
  O        12.3586877486       18.6246745372        7.9996948999
  O        48.6930980644       14.1487165488        22.741045051838
  O         8.2096447230       14.2107431316        9.3227231462
  O        10.7348827476       14.5067949028       10.6643378645
  O        12.5715753812       14.5827112046        9.3286568061
  O        22.8442913769        2.0425040172        21.476678581138
  O        21.6057032898        3.5926563317        22.578575574338
  O        42.0579555203       34.1373342918        23.969049064738
  O        37.9813003501       33.1351969501        21.561710710038
  O        39.2175749615       31.5750072405        22.655487815938
  O        20.3085363526        1.0403417962        22.491997850338
  O        38.0240002364       33.1843559008       10.4157404246
  O        39.2184293052       31.5830327507        9.3271362954
  O        40.6521826422       33.7692430465       10.0602601430
  O        18.2562049648        1.3762527340        7.9968368119
  O        44.6221248132       35.1006113957        22.748694737638
  O        24.2054449739       -0.0000876310        9.3207706072
  O        22.7537044949        2.0571883844       10.5836422183
  O        21.6268480387        3.5977879910        9.3452685686
  O        27.4539623945       18.6957830158        21.480148935238
  O        26.6894191845       16.9186068817        22.660174837338
  O        30.6331073136       19.3441369860        8.0069412269
  O        33.5429328187       16.3314532409        21.647043233938
  O        34.2655881474       18.1828364125        22.735315137438
  O        29.5307988893       17.0058564118        22.570273828538
  O        33.4470644788       16.3289137930       10.5864208750
  O        34.2251409535       18.1065601039        9.4057894224
  O        31.6381358484       18.3094388319       10.1638851366
  O        30.2927117017       15.1058384074        8.0687255615
  O        28.5521392345       21.0264994202        22.816691854638
  O        28.5094074401       20.9519782363        9.3975060337
  O        27.4570475036       18.6757409959       10.6604627097
  O        26.6894729737       16.9283874059        9.4183989016
  O        13.1466209394       18.6937478314       10.5862291274
  O        13.9178433672       16.9159535260        9.4040252956
  O        50.5955266761       19.3502114710        8.0208511506
  O        47.6791897124       16.3280918284       10.4183679452
  O        46.9491400319       18.1757905509        9.3262829359
  O        11.0686843924       17.0159757589        9.4895661225
  O        47.6739099593       16.3362001317        21.641898907738
  O        46.9245010214       18.2358986721        22.652676894638
  O        49.5685675994       18.3177187005        21.972172655338
  O        10.3184993542       15.1002705893        7.9971664720
  O        52.6707117664       21.0279889682        9.2418111148
  O        12.1467995301       20.8914106031        22.663165678338
  O        13.1044665546       18.6143034359        21.316162031938
  O        13.9551974732       16.9865463388        22.655232112238
  O        30.0343060896       14.5108663863       10.6690454607
  O        28.0895560854       14.6555302629        9.4971234529
  O        32.0677171733       16.8482300514        8.0591007485
  O        30.9598600084       20.9501914389       10.3370353258
  O        32.9576556554       20.5837401151        9.3247229768
  O        29.5660290809       17.0707395346        9.5744764059
  O        30.8537077460       20.8756744107        21.577035263538
  O        32.8538133689       20.5838160185        22.644531273338
  O        31.6105890238       18.2369602124        21.906661928738
  O        28.2560459992       18.6322323613        8.0680084642
  O        32.4923559533       14.2122532682        9.2392618324
  O        32.4014794574       14.2143614318        22.736139705238
  O        29.8352589710       14.4275376239        21.478018164038
  O        27.9587013342       14.5835573329        22.742420541238
  O        17.8892981259        1.9665936027       10.6627727842
  O        18.9564262034        3.5271932981        9.4080594215
  O        39.1684865654       34.1386198082        7.9972004965
  O        43.2801672311       33.0589178396       10.3316975847
  O        42.0343915929       31.5064514561        9.2416010447
  O        20.3175535622        1.0365315934        9.4800514457
  O        43.2760915423       33.1825299600        21.564703242038
  O        42.0052392399       31.5841314835        22.572817322138
  O        40.5790640280       33.7752279626        21.925946630538
  O        22.3673732967        1.3849245015        7.9982295657
  O        36.6728550487       35.0997137190        9.2333322843
  O        16.4457783511        0.0640673155        22.657978467838
  O        17.9364342744        2.0432414345        21.316294002838
  O        18.9192037822        3.5930984907        22.655825307038
  O        29.6653269358       18.6870755097        20.066021095238
  O        29.6504002657       18.9841742884       12.0694450526
  O        31.1755793180       16.1939669934        20.067288844838
  O        31.5540228210       16.1120571866       12.8394714507
  O        39.4567826287       35.2436717570        19.991860166638
  O        19.1410865994        0.0044264138       11.9905430105
  O        41.9693934522       35.1726756000        20.077039466238
  O        21.6913108463       -0.0693540239       11.8960899063
  O        51.3650959422       18.6144068818        19.995098942738
  O        10.7509064658       18.7471351994       11.9050734126
  O        50.0793133438       16.4127204534        20.081577967638
  O         9.5243002012       16.4831898195       11.9911568546
 Zr         9.2969415576       16.0529225930        22.171974123738
 Zr        49.8360350386       16.0072210769        9.7467544096
 Zr        22.0730739009        0.0298432092        22.179301099838
 Zr        42.4608285541       35.1537683431        9.8014359721
 Zr        29.5520639187       19.0335612353        22.197975020638
 Zr        29.5667626134       19.1908673044        9.8351495762
 Zr        11.0375985330       19.0524764983        9.8279457936
 Zr        11.0435072188       19.1552325990        22.241052234338
 Zr        31.3371349134       16.0859453300        9.7766524482
 Zr        31.3310981692       15.9891469580        22.190300987638
 Zr        18.6010775325       -0.0017966997        9.7634288994
 Zr        18.5066455278       -0.0078805188        22.203458882738
 Zr        12.3013431685       16.3232296263        23.980383766538
 Zr        48.6159230772       18.8329399871        8.0104813168
 Zr        20.3161036674        2.4741879419        23.981499549638
 Zr        40.6428908625       32.6867247843        23.967990632938
 Zr        28.3111372040       16.3245226306        8.0779622627
 Zr        32.5929052323       18.8412777226        8.0137596415
  H        30.1420429664       16.3823119799        17.467354030238
  H        30.3427014235       18.4543742908        17.448932619538
