     570
 i =      237, E =     -4745.5983043129
  C        11.8587313061       14.0535046946        21.731362201338
  C        12.4562447893       12.8905740129        21.013086602638
  C        11.7046708171       12.1718668704        20.071164457038
  C        12.2810642511       11.1096892025        19.378795110238
  C        13.6215354951       10.7396753887        19.606787875938
  C        14.3545659707       11.4430104340        20.580535042938
  C        13.7816620283       12.5079574467        21.272065565138
  C        14.2611250909        9.6490775645        18.833370052238
  C        14.2565096460        9.6570452107        17.411672353838
  C        13.7434086085       10.7591943245        16.657757170738
  C        49.1267588499       21.2332352303        21.869453767038
  C        48.5500373373       22.4011295385        21.142379544638
  C        49.3000461689       23.0683934628        20.161313204038
  C        48.7331405324       24.1075784719        19.428170618838
  C        47.4026071633       24.5092679241        19.656801537838
  C        46.6717131629       23.8604967136        20.670428070438
  C        47.2341238003       22.8155488621        21.399736850638
  C        46.7724012341       25.5869978075        18.859557421938
  C        46.7614852770       25.5574035621        17.437792763238
  C        47.2613968721       24.4422941206        16.694301192838
  C        14.8604769796        8.5707203367        16.698415906938
  C        14.8918132569        8.5970729192        19.510024242038
  C        49.1132238024       21.2035090025       10.1453583601
  C        48.5279046383       22.3648119152       10.8725301358
  C        49.2671053241       23.0254578467       11.8655191133
  C        48.6907949795       24.0600552582       12.5969204401
  C        47.3603945904       24.4568769664       12.3586438624
  C        46.6400135516       23.8120371464       11.3350465307
  C        47.2135442671       22.7760893636       10.6033148139
  C        46.7219845303       25.5318699341       13.1496520279
  C        46.7337109123       25.5282072843       14.5713523597
  C        47.2491448074       24.4290026458       15.3277458344
  C        40.6300862107       17.0979307294       15.3181298017
  C        40.6465313700       17.1380486034       12.5089111043
  C        11.8829867671       14.0864953044       10.2854890141
  C        12.4722727851       12.9106425417       10.9896311405
  C        11.7148615031       12.1776514019       11.9160003581
  C        12.2814443161       11.0951811601       12.5843916619
  C        13.6201965568       10.7213005079       12.3523915543
  C        14.3579907533       11.4365516618       11.3912102971
  C        13.7925802478       12.5177409469       10.7185486609
  C        14.2538389505        9.6245950468       13.1228091296
  C        14.2526700965        9.6446647607       14.5446429424
  C        13.7428434693       10.7536389427       15.2917118952
  C        22.5111396079        3.2441776442        21.742794925138
  C        23.2242008926        4.3499831681        21.042612728238
  C        24.2183066353        4.0709153271        20.093217710538
  C        24.8433382693        5.1113318715        19.410682914038
  C        24.4899207733        6.4526736844        19.657900766338
  C        23.5241617779        6.7232430586        20.644304964538
  C        22.8943586578        5.6846773061        21.325015737938
  C        25.0929330554        7.5604946729        18.882249728238
  C        25.0589853740        7.5569447822        17.460923508638
  C        24.3548711705        6.5587516459        16.715219971938
  C        38.3026001757       31.9303787101        21.838962604138
  C        37.5727258185       30.8416362087        21.129413503638
  C        36.6142997132       31.1463383622        20.150819003738
  C        35.9968472533       30.1264998029        19.432303852338
  C        36.3230830613       28.7772190604        19.671268247438
  C        37.2516910143       28.4800368012        20.686453107238
  C        37.8733969401       29.4985495998        21.403697961538
  C        35.7200939696       27.6858386252        18.874564696138
  C        35.7513125089       27.6997953585        17.453327459438
  C        36.4584163476       28.7008871752        16.715581016038
  C        25.6789829396        8.6286125426        16.741223849638
  C        25.6944209018        8.6326667345        19.552923670938
  C        38.3287000783       31.9616022978       10.1564235974
  C        37.6075729378       30.8878274140       10.8980068290
  C        36.6782070214       31.1954166197       11.9034563140
  C        36.0687532507       30.1761855025       12.6325618422
  C        36.3742207675       28.8236942942       12.3800887595
  C        37.2810375753       28.5260866714       11.3443807437
  C        37.8926173155       29.5417925994       10.6164741193
  C        35.7666068964       27.7243849049       13.1645076578
  C        35.7751104661       27.7195350790       14.5865941266
  C        36.4692965391       28.7107151410       15.3490654406
  C        46.1357156223       26.6208491548       15.2814835042
  C        46.0879303429       26.5801671565       12.4735958558
  C        22.4596487137        3.2560614662       10.2577162240
  C        23.1504969703        4.3664566660       10.9810715387
  C        24.1509248830        4.0836358517       11.9245069396
  C        24.7750176113        5.1161314155       12.6205141807
  C        24.4189487619        6.4609742776       12.3952910300
  C        23.4417567613        6.7370485744       11.4202913231
  C        22.8128241058        5.7048190842       10.7250733995
  C        25.0459144992        7.5612038703       13.1695228130
  C        25.0355131502        7.5565256430       14.5922956668
  C        24.3418111925        6.5595892516       15.3485463530
  C        26.6158005058       17.8588314200        21.772547261838
  C        25.3091654881       17.9038693443        21.048609029438
  C        25.0433234758       18.9052212703        20.101043266038
  C        23.8307838836       18.9218192975        19.414435640238
  C        22.8466019071       17.9415313387        19.654688913838
  C        23.1079038552       16.9631414463        20.632572914538
  C        24.3229382000       16.9401915853        21.315792692538
  C        21.5739106757       17.9259547187        18.889657453138
  C        21.5758794549       17.9066256111        17.467253909938
  C        22.7826319215       17.7854881576        16.708435379838
  C        34.4389902187       17.1896623175        21.904841313138
  C        35.7327702154       17.1340028443        21.164564121938
  C        35.9459111367       16.1525720737        20.183776490338
  C        37.1256471811       16.1393552877        19.445543125738
  C        38.1258957164       17.1047534111        19.670387028438
  C        37.9175220473       18.0654563860        20.678175021638
  C        36.7340940802       18.0852298352        21.412441341438
  C        39.3794690274       17.1110559349        18.883067243938
  C        39.3736208671       17.1162562351        17.461424382138
  C        38.1652898676       17.2290028938        16.704159661838
  C        20.3302134240       17.9247718990        16.757127497438
  C        20.3486864124       17.9273038212        19.570784895638
  C        34.4653368881       17.2409987812       10.1803475728
  C        35.7660307577       17.1610635122       10.9067983780
  C        35.9841690823       16.1643573991       11.8695584070
  C        37.1710810120       16.1385654338       12.5965033743
  C        38.1684019663       17.1086538566       12.3793566398
  C        37.9569476408       18.0811075688       11.3845003702
  C        36.7680490369       18.1116968074       10.6606544526
  C        39.4160875946       17.1200226463       13.1743010957
  C        39.3927187590       17.1213410365       14.5953436032
  C        38.1744087731       17.2299860869       15.3374690395
  C        35.1429466359       26.6417875555       15.2914234201
  C        35.1777276120       26.6524254743       12.4821545468
  C        26.5759965908       17.8266754534       10.3256839213
  C        25.2623421802       17.8682076366       11.0361063234
  C        24.9968393776       18.8741052084       11.9776924145
  C        23.7786601830       18.8990746344       12.6514303968
  C        22.7963614969       17.9186876856       12.4063319201
  C        23.0568608701       16.9368604858       11.4333057236
  C        24.2758910778       16.9093860264       10.7584883160
  C        21.5313463672       17.9011444605       13.1773560443
  C        21.5537888203       17.8920209695       14.5988299212
  C        22.7715349439       17.7779498558       15.3422152275
  C        14.0472005831       17.8289023601       10.2887223180
  C        15.3524036195       17.8857979004       11.0134489987
  C        15.6101924399       18.8886300210       11.9611713812
  C        16.8196463339       18.9087753948       12.6535089412
  C        17.8059347026       17.9289635239       12.4203848381
  C        17.5530498799       16.9505823613       11.4402684506
  C        16.3430218783       16.9258170736       10.7496089880
  C        19.0749111724       17.9105346115       13.1900621491
  C        19.0723219738       17.9064301969       14.6126353392
  C        17.8645368113       17.8076913649       15.3727465193
  C        46.8052016055       17.2179711518       10.1584447195
  C        45.5154032582       17.1538208657       10.9037003900
  C        45.3101546367       16.1721838319       11.8855120633
  C        44.1287543830       16.1509384131       12.6217679688
  C        43.1231939561       17.1115876462       12.3983511223
  C        43.3256582499       18.0729360032       11.3897611938
  C        44.5076757113       18.0978688370       10.6541574107
  C        41.8706334548       17.1192188551       13.1874172915
  C        41.8766947078       17.1131500788       14.6092537744
  C        43.0857905955       17.2065539518       15.3678871679
  C        20.3183655517       17.9167092371       15.3223259212
  C        20.3000153467       17.8905244464       12.5092163789
  C        46.7856074711       17.2308200656        21.879209708438
  C        45.4827882669       17.1234861878        21.163909713438
  C        45.2650037700       16.1224545959        20.205168715938
  C        44.0774031513       16.0936836756        19.478556217338
  C        43.0785778501       17.0629426856        19.693889675738
  C        43.2866292910       18.0337653661        20.691308651938
  C        44.4753350306       18.0688223483        21.413110266238
  C        41.8328682994       17.0829083626        18.896731698938
  C        41.8575029957       17.0935040158        17.475807766738
  C        43.0767864090       17.1948303831        16.734426815538
  C        46.1534591560       26.6372684791        16.716031193238
  C        46.1623971244       26.6560918265        19.525687637038
  C        14.0446566210       17.8307372420        21.698118822238
  C        15.3648769310       17.9025217133        21.006137407038
  C        15.6396113094       18.9179277228        20.078052624838
  C        16.8684328138       18.9532153555        19.422871343738
  C        17.8495816478       17.9720767401        19.670142798538
  C        17.5814623126       16.9850924301        20.635908840838
  C        16.3547436157       16.9493616098        21.294623661938
  C        19.1171604923       17.9462576704        18.902197145638
  C        19.0944714398       17.9236705855        17.480740493038
  C        17.8753478188       17.8153192936        16.738791664138
  C        28.8089962300       14.0945576895       10.3947560442
  C        28.1911967263       12.9240031884       11.0839794091
  C        28.9090599594       12.1830409480       12.0344221429
  C        28.3051115448       11.1098836329       12.6850230767
  C        26.9695184827       10.7534829964       12.4084746030
  C        26.2735929059       11.4749269101       11.4220904217
  C        26.8749171893       12.5486788638       10.7706894576
  C        26.2965023284        9.6747439494       13.1674262679
  C        26.2801220765        9.7029443591       14.5881777413
  C        26.7806466965       10.8171860559       15.3336173371
  C        32.1816719566       21.2362333341       10.1429482861
  C        32.7773993427       22.4000318830       10.8644425337
  C        32.0274849215       23.0815040848       11.8354099106
  C        32.5978318896       24.1209211719       12.5639664162
  C        33.9337715423       24.5072793250       12.3422992381
  C        34.6663846411       23.8445143819       11.3395014588
  C        34.0984439165       22.7995449949       10.6129738857
  C        34.5616094625       25.5837490371       13.1424395221
  C        34.5506508283       25.5577645679       14.5642717623
  C        34.0383293667       24.4450413741       15.3035431424
  C        25.6712437426        8.6247944059       15.3068121852
  C        25.6623871068        8.6228809750       12.4934571284
  C        32.1035470339       21.2284538184        21.873137328138
  C        32.6918920838       22.3853207064        21.136162666938
  C        31.9572212538       23.0402754858        20.135657442838
  C        32.5362873014       24.0698805491        19.397604974938
  C        33.8637643999       24.4735867006        19.640927393338
  C        34.5804014754       23.8328325281        20.670051106838
  C        34.0061282259       22.7982409790        21.404099078638
  C        34.5040390542       25.5527185270        18.853782354738
  C        34.5202429126       25.5421136560        17.431607194838
  C        34.0226164117       24.4380790729        16.670242596038
  C        40.6200298827       17.0916878876        16.752479641238
  C        40.6025969864       17.1114305723        19.562446882538
  C        28.7386803438       14.0660954631        21.809236141238
  C        28.1294531675       12.9202501601        21.071374857838
  C        28.8552245568       12.2421702069        20.080155338638
  C        28.2723453827       11.1874021192        19.381849671638
  C        26.9479595225       10.7854631062        19.648397699738
  C        26.2396338202       11.4524396330        20.665797733838
  C        26.8205840546       12.5071162856        21.366507233938
  C        26.3024748889        9.6978000177        18.875678166238
  C        26.2845795113        9.7152296929        17.453972823138
  C        26.7805852060       10.8244906575        16.699291940438
  C        18.1354003826        3.1808885495       10.3171594256
  C        17.4061162986        4.2781825986       11.0158397185
  C        16.3903319767        3.9998513556       11.9432753505
  C        15.7425954052        5.0398556138       12.6067448221
  C        16.0946301725        6.3835483138       12.3671360176
  C        17.0840694950        6.6530514705       11.4034321738
  C        17.7331626429        5.6156821238       10.7384190525
  C        15.4703076081        7.4912796460       13.1301426439
  C        15.4856680277        7.4906730033       14.5518521393
  C        16.1872202547        6.4970509365       15.3050214421
  C        42.9459297238       31.8595110720       10.0728675168
  C        43.6463627157       30.7718566050       10.8168045522
  C        44.5920335935       31.0931758368       11.8027336134
  C        45.1977605205       30.0876305496       12.5503848969
  C        44.8711587800       28.7345895396       12.3356714507
  C        43.9451042713       28.4202458087       11.3226741435
  C        43.3362658316       29.4253939968       10.5746525951
  C        45.4887626967       27.6553030572       13.1388724552
  C        45.4929521231       27.6809425163       14.5605651857
  C        44.8058795104       28.6890046279       15.3071784262
  C        14.8567145230        8.5631843816       15.2641967747
  C        14.8749802019        8.5630052316       12.4515326527
  C        42.9464324616       31.9615601076        21.798777568838
  C        43.6916291047       30.8854407119        21.085219706938
  C        44.6564339205       31.1913443722        20.113132063238
  C        45.2779875699       30.1717612041        19.395423405438
  C        44.9540007654       28.8214616383        19.632854781738
  C        44.0202437643       28.5237847251        20.643369169438
  C        43.3919547469       29.5405526408        21.355525078638
  C        45.5630948999       27.7240721180        18.847618294338
  C        45.5334489375       27.7174041049        17.426318782038
  C        44.8271353669       28.7076411289        16.673362729138
  C        35.1290838166       26.6327215857        16.726305586238
  C        35.1152947201       26.6113977689        19.536072389938
  C        18.1485805623        3.2469545236        21.696367048138
  C        17.4299495072        4.3438369735        20.987093971538
  C        16.4146833443        4.0525933274        20.063594931738
  C        15.7663675052        5.0832521074        19.388233068738
  C        16.1211776503        6.4284562641        19.610867004238
  C        17.1126283674        6.7118099279        20.568050657238
  C        17.7603075485        5.6828748832        21.247778701538
  C        15.4907234252        7.5241907092        18.838437219238
  C        15.4966769554        7.5076092575        17.417305917138
  C        16.1934353029        6.5058873248        16.670626458138
  H        10.6726041904       12.4661229586        19.893991355038
  H        11.6948461777       10.5513339439        18.652103923038
  H        15.3914990749       11.1681959770        20.762500489638
  H        14.3510010663       13.0709786302        22.007750853138
  H        13.3763710747       11.6313152194        17.191052570738
  H        50.3227303553       22.7483132557        19.976518632838
  H        49.3196151658       24.6228128417        18.670563918438
  H        45.6422580998       24.1613546633        20.853665770838
  H        46.6630973770       22.2904001690        22.161882072438
  H        47.6298798363       23.5758814399        17.235969921838
  H        14.8720735519        8.5882456257        20.598330059838
  H        50.2871506162       22.7026198884       12.0604380590
  H        49.2691778715       24.5755288007       13.3604176520
  H        45.6106492275       24.1093629476       11.1458935375
  H        46.6527280979       22.2540331566        9.8316768499
  H        47.6078623660       23.5518496343       14.7968653041
  H        40.6517924010       17.1126975348       11.4209064658
  H        48.6871574377       14.0948538385        23.789846123438
  H        10.6814442867       12.4668292777       12.0935475165
  H        11.6897226211       10.5249193300       13.2972528043
  H        15.3933342309       11.1584754636       11.2050696783
  H        14.3648181597       13.0869288929        9.9897993324
  H        13.3760171348       11.6222460151       14.7530663915
  H        47.9302153828       14.2181557427        9.7107770475
  H        47.7800527422       14.3736406595        22.485155237538
  H        49.0835788610       18.5524476066       10.8673411731
  H        10.4160894384       14.1343189917        7.9987152315
  H        24.4785858062        3.0325134910        19.900455451838
  H        25.6142618766        4.8950298472        18.674259812638
  H        23.2441652907        7.7560185142        20.841224606038
  H        22.1262554590        5.8838156420        22.068299613238
  H        23.7947019934        5.8014697234        17.255944460438
  H        36.3784165622       32.1897553041        19.955531563438
  H        35.2532163242       30.3656671121        18.675291589338
  H        37.5106076080       27.4406897485        20.877608874738
  H        38.6161556218       29.2774694947        22.166508294738
  H        37.0241304522       29.4504681652        17.261227551238
  H        25.7360552163        8.6114255158        20.640428225938
  H        36.4543591349       32.2393590227       12.1110753835
  H        35.3427321650       30.4203923350       13.4048809796
  H        37.5288736903       27.4861267883       11.1423565354
  H        38.6152807004       29.3167108270        9.8359350729
  H        37.0443963782       29.4674381427       14.8232886354
  H        46.1092812508       26.5875694023       11.3855597423
  H        44.6682040387       35.1161680273        23.803765952638
  H        24.4301634382        3.0461707375       12.0939822176
  H        25.5544478877        4.8899736416       13.3450185740
  H        23.1553547826        7.7707449555       11.2374304362
  H        22.0423737447        5.9149007530        9.9868125522
  H        23.7710291533        5.8035136288       14.8172392287
  H        44.9537065495       34.3904053669        9.6952557359
  H        44.9016839600       34.2067599342        22.480473392038
  H        40.6656873657       33.2087091745       10.8529689506
  H        23.1503314485        1.9578842612        8.0053553318
  H        25.7963514468       19.6685770432        19.918836052838
  H        23.6301525420       19.7041057974        18.685461759838
  H        22.3596875168       16.1973873919        20.827099344338
  H        24.5357463670       16.1709542896        22.054552838938
  H        23.7233675627       17.6681576430        17.238605221038
  H        35.1724028152       15.4087937621        20.008743272838
  H        37.2889085863       15.3720090173        18.691970643938
  H        38.6826415161       18.8183755728        20.855915816938
  H        36.5560364126       18.8416267448        22.173350740638
  H        37.2251702281       17.3465362199        17.235520514138
  H        20.3540542053       17.9660325269        20.658700424338
  H        35.2053566430       15.4260012845       12.0444891205
  H        37.3392305948       15.3629353121       13.3404758324
  H        38.7211919529       18.8363561324       11.2131146810
  H        36.5828732341       18.8791272123        9.9128453096
  H        37.2413896223       17.3477634384       14.7938625254
  H        35.1516642764       26.6765755186       11.3943684384
  H        28.5019591281       21.0854796441        23.874633031038
  H        25.7568397333       19.6305256080       12.1607538053
  H        23.5721635265       19.6838830167       13.3759720352
  H        22.3068824686       16.1728895263       11.2386631665
  H        24.4925955808       16.1404120614       10.0208122296
  H        23.7037597389       17.6545551704       14.7992317824
  H        29.0044005756       21.7237133449        9.7439211448
  H        29.1854660997       21.7242146938        22.549893273238
  H        32.0828195316       18.5541369896       10.9273768549
  H        27.4065912985       19.0740505332        8.0829888545
  H        14.8521856776       19.6479341531       12.1401995726
  H        17.0153023653       19.6927419749       13.3819754772
  H        18.3037603589       16.1860226384       11.2509042675
  H        16.1365305999       16.1569042929       10.0089147037
  H        16.9224731940       17.6930146958       14.8444929748
  H        46.0935061994       15.4395278433       12.0647101010
  H        43.9698389122       15.3819992703       13.3746023621
  H        42.5571370376       18.8226240515       11.2132463885
  H        44.6805680835       18.8542104973        9.8921244635
  H        44.0273902547       17.3208232064       14.8384587096
  H        20.2952357393       17.9206385642       11.4210760746
  H        46.0421567020       15.3818338331        20.030822353638
  H        43.9107925291       15.3170887794        18.735240291538
  H        42.5200701775       18.7863775742        20.863670274438
  H        44.6578112878       18.8371574863        22.160380725438
  H        44.0115026001       17.2989721618        17.277730871238
  H        46.1991444915       26.6826227956        20.613135931538
  H        52.7411500491       21.0626392972        8.1946951591
  H        14.8805070200       19.6733212461        19.887214214738
  H        17.0811604993       19.7436982622        18.706354823038
  H        18.3305212588       16.2211713266        20.833989968738
  H        16.1320271456       16.1748799095        22.024511065838
  H        16.9413748732       17.7065421378        17.281906855138
  H        52.3224570316       21.6732896394        22.284111820738
  H        52.0132680361       21.7020851876        9.4957193518
  H        49.0674034581       18.6078156695        21.193985413338
  H        13.2474556223       19.0164280210        23.967014070938
  H        29.9390739141       12.4612425168       12.2467403220
  H        28.8631769869       10.5340952031       13.4202245987
  H        25.2417124159       11.2094804777       11.2013982027
  H        26.3355226870       13.1270416842       10.0246577294
  H        27.1413049361       11.6868488437       14.7928859880
  H        31.0010100413       22.7710009141       12.0143301905
  H        32.0110423441       24.6482076666       13.3129539329
  H        35.7003890238       24.1335195932       11.1626669571
  H        34.6695687462       22.2627556323        9.8589660250
  H        33.6811805545       23.5762523472       14.7580241755
  H        25.6955835837        8.6018986549       11.4055748411
  H        30.9367122683       22.7185039592        19.940857247438
  H        31.9601615142       24.5782303176        18.627516907938
  H        35.6078557429       24.1338707168        20.863888025638
  H        34.5653288308       22.2808559532        22.180224033638
  H        33.6533266300       23.5637066771        17.198595991738
  H        40.5959485508       17.0795475485        20.650298455438
  H        32.5054289753       14.1460055957        8.2467967899
  H        29.8763653564       12.5541484639        19.873399308338
  H        28.8436659596       10.6577592433        18.622674787438
  H        25.2146998719       11.1552230536        20.878191684038
  H        26.2705652024       13.0379199083        22.139965381138
  H        27.1412486509       11.6998023652        17.231508652338
  H        33.3054130136       14.2265946119        22.451256697138
  H        33.4078392639       14.4135136162        9.5939669745
  H        32.1469574836       18.5237750036        21.124134976238
  H        30.1924357404       14.1553429645        8.0766600731
  H        16.1181893565        2.9633514419       12.1295963661
  H        14.9530642283        4.8204890549       13.3223224407
  H        17.3665581750        7.6859212433       11.2103719889
  H        18.5152289832        5.8182699613       10.0105863414
  H        16.7537157972        5.7396729898       14.7715085530
  H        44.8284784485       32.1402472840       11.9767554367
  H        45.9377639344       30.3413588990       13.3062013271
  H        43.6821979581       27.3781995738       11.1527360170
  H        42.5994886694       29.1900623046        9.8101397469
  H        44.2305165019       29.4367511291       14.7688531754
  H        14.8511145589        8.5461353680       11.3633155843
  H        44.9001497206       32.2340169638        19.921859302738
  H        46.0250427634       30.4129770005        18.642331074738
  H        43.7630476143       27.4840726033        20.834714118338
  H        42.6452494840       29.3177535032        22.113768180938
  H        44.2686083717       29.4705127805        17.207952550238
  H        35.0728430367       26.6251496069        20.623513876438
  H        36.6050258766       35.1339866205        8.1805902983
  H        16.1434969519        3.0130222120        19.893980968338
  H        14.9739699877        4.8564261737        18.678218361138
  H        17.3962263671        7.7472690659        20.744848410338
  H        18.5432447752        5.8932660316        21.972491607938
  H        16.7647955143        5.7556100743        17.209093669738
  H        36.2783968686       34.4825889026        22.263045016738
  H        36.3805351284       34.2092738084        9.4998195883
  H        40.5801029450       33.2022920304        21.143494771738
  H        17.4705317466        1.9471379926        23.963929135038
  H        29.1699498586       19.3513831220       12.5115253688
  H        28.8116147645       18.9095553739        19.758349613638
  H        32.1573366001       16.0752752152        19.570497171538
  H        31.4786189252       15.6823758146       12.5329831498
  H        27.8823784118       17.6496344480       14.0792266028
  H        29.4954034839       15.2498780235       14.2393572067
  H        32.4894210000       17.6303513542        17.075309646138
  H        30.3018599574       15.1722909509        18.440179903238
  H        18.8525642511        0.8687080311       12.3351545180
  H        40.5279196808       35.2290814116        19.941908658438
  H        42.3239138322       34.4188190095        19.580414057838
  H        22.0875177990        0.6916940778       12.3517550184
  H        11.5969622678       18.7130018806       12.3825273679
  H        52.2647995472       18.4312239789        19.667011175338
  H        49.2552484837       16.4770617304        19.574350311038
  H        10.1504176046       15.7981689840       12.2927077366
  H        50.8499982586       17.6923676868        19.944091745338
  H        10.0461839983       17.3944634400       12.0519776016
  H        20.2135450701        0.0018500609       12.0421467709
  H        39.1836191322       36.1243610271        19.676086802638
 Ni        30.6491929308       17.7419592883        18.739037460638
 Ni        30.7753628046       16.3080970846        16.073728240638
 Ni        29.2557676420       18.0097619859        16.074380114538
 Ni        30.0186611252       17.3222547391       13.0771693646
  O        10.6499590184       14.3651205753        21.475631537138
  O        12.6131895519       14.6575195063        22.573692007638
  O        49.1479286357       16.8459310545        23.979561817338
  O        50.3502336420       20.9358364192        21.637875400138
  O        48.3485092448       20.5933361809        22.655716563538
  O        11.0516812709       17.0539296876        22.490476959038
  O        50.3210471206       20.8816052542       10.4068195750
  O        48.3467364647       20.5867881792        9.3271614325
  O        49.5436633135       18.2484224490       10.0682792589
  O        12.3590186130       18.6246221287        7.9997595026
  O        48.6932766216       14.1485526328        22.741114889338
  O         8.2099375245       14.2103461705        9.3224971220
  O        10.7354165640       14.5067597671       10.6643268157
  O        12.5718367473       14.5828684715        9.3285138396
  O        22.8445027004        2.0432443972        21.476935579138
  O        21.6051507674        3.5920896428        22.579724979138
  O        42.0581579799       34.1373608003        23.968833936638
  O        37.9818457059       33.1388209309        21.562525331338
  O        39.2181161249       31.5764971516        22.656446229138
  O        20.3083669412        1.0394485165        22.491821253738
  O        38.0245641031       33.1854801342       10.4152151638
  O        39.2191865786       31.5837428366        9.3263983055
  O        40.6522285188       33.7692513229       10.0602349153
  O        18.2553187221        1.3761033858        7.9968048767
  O        44.6222344257       35.1005443849        22.748564858238
  O        24.2053477257        0.0000563041        9.3208444523
  O        22.7529231256        2.0583492130       10.5840448025
  O        21.6240417421        3.5957814069        9.3419305345
  O        27.4937824946       18.7509423345        21.482185394638
  O        26.7621476778       16.9360623678        22.643263746538
  O        30.6660155363       19.4062429424        8.0143243644
  O        33.5797332759       16.2739803215        21.649014135938
  O        34.2749231127       18.1615812214        22.720500637538
  O        29.5767589838       17.0545046695        22.565317917638
  O        33.6024480402       16.3233833309       10.4066629821
  O        34.3025729311       18.2417732587        9.4031745427
  O        31.6567063308       18.3164651968       10.0861282904
  O        30.2983062452       15.1201522277        8.0806833340
  O        28.5516931044       21.0348805963        22.823320669838
  O        28.5147966982       20.9552376212        9.4045702727
  O        27.4609905936       18.6792587418       10.6585204099
  O        26.6948480025       16.9290969692        9.4121790067
  O        13.1493001663       18.6928242449       10.5875998577
  O        13.9196177329       16.9162099818        9.4051221546
  O        50.5961260169       19.3502477349        8.0206143468
  O        47.6839558953       16.3267549546       10.4170672498
  O        46.9515405615       18.1756859923        9.3249142147
  O        11.0697402472       17.0156126818        9.4897043303
  O        47.6764772025       16.3355384316        21.643129133838
  O        46.9270084020       18.2357804427        22.654201447038
  O        49.5686434327       18.3177186525        21.972123565838
  O        10.3187303058       15.1001655544        7.9971230833
  O        52.6707632009       21.0278799660        9.2418351957
  O        12.1468315867       20.8911776735        22.663021980438
  O        13.1080636939       18.6136493077        21.315431309138
  O        13.9569362772       16.9868179672        22.655374299138
  O        29.9930198092       14.4439649893       10.7324956945
  O        28.0880502032       14.6540870968        9.4963349415
  O        32.0768960132       16.8566240859        8.0508563757
  O        30.9650968870       20.9499352356       10.4060872941
  O        32.9465127110       20.5992685245        9.3342509057
  O        29.5646127400       17.0728811190        9.5722249129
  O        30.8753287961       20.9435840172        21.648462522238
  O        32.8798069200       20.5842034634        22.654731852438
  O        31.6778785589       18.2507596316        21.928152857038
  O        28.2922711073       18.6762575191        8.0686801737
  O        32.4916297652       14.2130654652        9.3263367241
  O        32.4034266957       14.2161771927        22.813117303838
  O        29.9121520527       14.4376153923        21.476806585938
  O        28.0341839123       14.5899914539        22.741097214838
  O        17.8891668789        1.9666074928       10.6628343197
  O        18.9561789224        3.5271335995        9.4079893947
  O        39.1686529153       34.1388186067        7.9972046202
  O        43.2802743853       33.0589412328       10.3317265280
  O        42.0345721961       31.5064281884        9.2416371567
  O        20.3175250640        1.0366139892        9.4803380116
  O        43.2761092483       33.1825523191        21.564676594038
  O        42.0052777263       31.5840530175        22.572764471538
  O        40.5790175926       33.7749182507        21.925664293338
  O        22.3673086185        1.3845385278        7.9979738137
  O        36.6727253435       35.0997615659        9.2332818728
  O        16.4454775635        0.0643516633        22.658146161338
  O        17.9364403544        2.0434030966        21.316143123138
  O        18.9189559835        3.5931587228        22.655721501938
  O        29.7324623689       18.8387949815        20.069396829238
  O        29.8632253522       18.8957068095       11.9956647850
  O        31.2964946713       16.2662488011        19.987448300438
  O        31.3437616276       16.4874315102       11.9959141243
  O        31.9420087220       16.9290417702        17.469442140138
  O        29.8770845716       14.9451088585        17.573449316438
  O        30.2811454202       15.8213391941       14.3038110358
  O        28.7266539811       18.1055958927       14.2473696851
  O        39.4567689990       35.2437783211        19.991726696838
  O        19.1404432994        0.0041518157       11.9906155787
  O        41.9696728644       35.1728099024        20.076968913238
  O        21.6910561734       -0.0695450055       11.8958630620
  O        51.3650122411       18.6143012043        19.995218243838
  O        10.7512093186       18.7471400843       11.9048945834
  O        50.0797297132       16.4128241168        20.081537607638
  O         9.5245591561       16.4830376560       11.9911998432
 Zr         9.2969737298       16.0527259939        22.172273946138
 Zr        49.8364125029       16.0066785997        9.7464245553
 Zr        22.0732246309        0.0296831619        22.178906705838
 Zr        42.4608257786       35.1533629377        9.8010250713
 Zr        29.6089039965       19.0853045090        22.243438655438
 Zr        29.5855568377       19.1825746171        9.8373720139
 Zr        11.0380160424       19.0520388661        9.8277763564
 Zr        11.0437221988       19.1549160000        22.240951908238
 Zr        31.3437211355       16.0981765346        9.8484441373
 Zr        31.3689446287       15.9985125230        22.236798273938
 Zr        18.6008828079       -0.0017731298        9.7632660416
 Zr        18.5063576891       -0.0077625235        22.203484234338
 Zr        12.3019144800       16.3235260986        23.980227286738
 Zr        48.6164097879       18.8332171331        8.0103575730
 Zr        20.3149053079        2.4730019631        23.980303445738
 Zr        40.6433174244       32.6868982332        23.968106018638
 Zr        28.3446753593       16.3355097508        8.0843767766
 Zr        32.6242923399       18.8359454837        8.0377112732
  H        28.9711039974       15.2904289253        17.667974434738
  H        29.4093203629       18.1052237869        17.610778305738
