     573
 i =      267, E =     -4762.8180369009
  C        11.8586100106       14.0534888078        21.731376462938
  C        12.4560107475       12.8905131148        21.013108503438
  C        11.7042417634       12.1717409696        20.071376743738
  C        12.2804703600       11.1094483357        19.379035231638
  C        13.6209984883       10.7394574224        19.606783348938
  C        14.3542069729       11.4428444904        20.580369278938
  C        13.7814729984       12.5079093812        21.271876681038
  C        14.2604578287        9.6487692311        18.833366256638
  C        14.2557051307        9.6566704191        17.411661715138
  C        13.7424151206       10.7587155636        16.657726781938
  C        49.1267795465       21.2331981513        21.869500365538
  C        48.5500121881       22.4010869323        21.142399209538
  C        49.3000555838       23.0684793972        20.161459196638
  C        48.7331024053       24.1076124552        19.428273077138
  C        47.4025408401       24.5091911911        19.656883229038
  C        46.6715687693       23.8602357458        20.670329688338
  C        47.2340353415       22.8153321581        21.399662937938
  C        46.7722793058       25.5868796042        18.859621394038
  C        46.7612151062       25.5572324616        17.437864478238
  C        47.2611344886       24.4421324163        16.694373318438
  C        14.8597270136        8.5703868518        16.698382097838
  C        14.8913104592        8.5968532414        19.510002403338
  C        49.1130224408       21.2034203659       10.1453625754
  C        48.5276133948       22.3647322633       10.8725218534
  C        49.2668595681       23.0255366869       11.8653687895
  C        48.6904844960       24.0600474079       12.5968508010
  C        47.3600094251       24.4566773050       12.3587103087
  C        46.6395689731       23.8116534207       11.3352791145
  C        47.2131547880       22.7757793755       10.6034751075
  C        46.7215378141       25.5316211768       13.1497480807
  C        46.7333015101       25.5279867109       14.5714474802
  C        47.2488137239       24.4288060921       15.3278224272
  C        40.6179590780       17.1225648319       15.3072951172
  C        40.6266801265       17.1163682067       12.4971076187
  C        11.8827239952       14.0864990928       10.2853915822
  C        12.4718682661       12.9105247499       10.9894987841
  C        11.7143644393       12.1775982792       11.9158472864
  C        12.2808183415       11.0950799260       12.5842795004
  C        13.6195083844       10.7209821752       12.3522632580
  C        14.3573911722       11.4361666999       11.3910901665
  C        13.7920985620       12.5173845722       10.7183684326
  C        14.2531099411        9.6242789298       13.1227424654
  C        14.2518112469        9.6442715887       14.5445925057
  C        13.7418518651       10.7531753311       15.2916783621
  C        22.5134483356        3.2434941247        21.745974899938
  C        23.2332371056        4.3479235019        21.052376483938
  C        24.2350557408        4.0662880984        20.111975612438
  C        24.8654685448        5.1050750592        19.432591149638
  C        24.5091250160        6.4465521412        19.674122194038
  C        23.5369887341        6.7199683986        20.653121725538
  C        22.9019411506        5.6829303009        21.331056761638
  C        25.1134358538        7.5507504379        18.895477044938
  C        25.0765241404        7.5414460206        17.474872494238
  C        24.3653996918        6.5423602060        16.737220285138
  C        38.2989133946       31.9276682644        21.841048064738
  C        37.5596353160       30.8384068606        21.138072613638
  C        36.5944726325       31.1444470539        20.166156976638
  C        35.9663542206       30.1260094657        19.454205388438
  C        36.2880452129       28.7750340634        19.690894545938
  C        37.2228314549       28.4763859867        20.700268940338
  C        37.8548772540       29.4937979173        21.411583766538
  C        35.6793858992       27.6860069284        18.891942925838
  C        35.7182654601       27.7008361910        17.470162516938
  C        36.4302428304       28.7018313834        16.736591294138
  C        25.6974027330        8.6084277126        16.749048951238
  C        25.7145810659        8.6261302537        19.560374701438
  C        38.3301561386       31.9607802458       10.1597872573
  C        37.6126742788       30.8874894416       10.9082431734
  C        36.6804601100       31.1969149431       11.9107385627
  C        36.0702059528       30.1797803581       12.6428474642
  C        36.3770142791       28.8262776791       12.3968565608
  C        37.2898076441       28.5267411650       11.3667235283
  C        37.9019425532       29.5404470787       10.6357818085
  C        35.7627092693       27.7277161932       13.1790688397
  C        35.7605361379       27.7224706396       14.6017019444
  C        36.4491800197       28.7130239566       15.3701031508
  C        46.1353098577       26.6206314802       15.2815817908
  C        46.0875173679       26.5799332608       12.4736907412
  C        22.4541574575        3.2524727396       10.2588995976
  C        23.1355028472        4.3597905847       10.9903185946
  C        24.1347043655        4.0732471656       11.9334634994
  C        24.7529415449        5.1034489365       12.6363675358
  C        24.3900424668        6.4468670968       12.4166302400
  C        23.4117574951        6.7267215192       11.4443464665
  C        22.7891182968        5.6968913785       10.7417828908
  C        25.0198336291        7.5445853212       13.1872383521
  C        25.0290885824        7.5373731909       14.6089496583
  C        24.3410625570        6.5414541347       15.3712115973
  C        26.6294769567       17.8661622208        21.729413952738
  C        25.3241472777       17.9335200728        21.006893275138
  C        25.0796609541       18.9227400940        20.041052424238
  C        23.8594850548       18.9600253122        19.367658842838
  C        22.8519945362       18.0097800188        19.634554123538
  C        23.0951628153       17.0450891823        20.630331799138
  C        24.3135245127       17.0047996350        21.304675046738
  C        21.5767947960       17.9977558350        18.875463479338
  C        21.5754066144       17.9695795516        17.453221084038
  C        22.7801040522       17.8445613528        16.691340450838
  C        34.4358889941       17.1966182676        21.910188132438
  C        35.7263352635       17.1534590165        21.161094397038
  C        35.9176810949       16.2063620003        20.142697091738
  C        37.0985951656       16.1964729101        19.405067431738
  C        38.1197703084       17.1322853573        19.664034132938
  C        37.9288073947       18.0599725810        20.706114103838
  C        36.7458596060       18.0755233865        21.441681971438
  C        39.3736531071       17.1438024254        18.876122447038
  C        39.3669310802       17.1606568128        17.454037721838
  C        38.1597785998       17.2926279139        16.698089648738
  C        20.3275378850       17.9801417140        16.747526325538
  C        20.3529777801       17.9957688838        19.560440518338
  C        34.4118127927       17.2016090219       10.2265099820
  C        35.7212767164       17.1165255216       10.9348225158
  C        35.9319391137       16.1590636334       11.9385370996
  C        37.1293628131       16.1408132017       12.6491527009
  C        38.1441700783       17.0801219604       12.3784010900
  C        37.9396211840       18.0081296256       11.3398771722
  C        36.7421842465       18.0306903473       10.6305822075
  C        39.3968394665       17.1103911004       13.1658471937
  C        39.3788124474       17.1430541340       14.5871870051
  C        38.1649754793       17.2818916959       15.3316530754
  C        35.1226186229       26.6449903662       15.3023381522
  C        35.1765000475       26.6563106006       12.4926561825
  C        26.5673694313       17.8267372015       10.3285207629
  C        25.2514211548       17.8860063703       11.0274139009
  C        24.9758014665       18.9143409705       11.9412665945
  C        23.7567415373       18.9458154282       12.6125290239
  C        22.7844593336       17.9504690394       12.3914667087
  C        23.0527547663       16.9478674252       11.4421113540
  C        24.2726902010       16.9133264886       10.7701079808
  C        21.5213099217       17.9372962995       13.1652441747
  C        21.5467425717       17.9396675750       14.5862611343
  C        22.7669574814       17.8321534447       15.3255683396
  C        14.0448327400       17.8300807647       10.2870740180
  C        15.3485670338       17.8912977107       11.0108197204
  C        15.6031905164       18.9010726918       11.9516892015
  C        16.8117716347       18.9274804151       12.6440832382
  C        17.7981827545       17.9469721557       12.4165889458
  C        17.5482572093       16.9609203955       11.4438159864
  C        16.3390444709       16.9300738814       10.7528488882
  C        19.0667533050       17.9375915442       13.1841291032
  C        19.0660152051       17.9438199175       14.6063113826
  C        17.8600383397       17.8443093385       15.3692253871
  C        46.8016175269       17.2168211490       10.1567579038
  C        45.5072964502       17.1491983723       10.8962525252
  C        45.3008923299       16.1708558314       11.8813602231
  C        44.1161492121       16.1477235076       12.6129099109
  C        43.1064809917       17.1025828596       12.3819778989
  C        43.3091582568       18.0587711290       11.3683054533
  C        44.4949133308       18.0861479075       10.6379110933
  C        41.8531500923       17.1135940143       13.1722721354
  C        41.8627262517       17.1267043343       14.5946464037
  C        43.0733863777       17.2260296941       15.3502161397
  C        20.3130610093       17.9642057740       15.3130041635
  C        20.2894733037       17.9164639677       12.4999085410
  C        46.7847409077       17.2332848485        21.875171725538
  C        45.4831752456       17.1327738145        21.154013387438
  C        45.2645879213       16.1395378909        20.187058072038
  C        44.0771537407       16.1168406251        19.458986521538
  C        43.0774827403       17.0844624954        19.679715958538
  C        43.2872975785       18.0483986605        20.683803395838
  C        44.4756527902       18.0774519436        21.407068461838
  C        41.8293166357       17.1094181974        18.884270401738
  C        41.8506824583       17.1238448354        17.462777409538
  C        43.0677199333       17.2215652730        16.717189133538
  C        46.1531473105       26.6370878199        16.716128612538
  C        46.1623836744       26.6560156640        19.525767637938
  C        14.0463356168       17.8345381479        21.698753623438
  C        15.3677644347       17.9181825539        21.008215613138
  C        15.6333135880       18.9389523807        20.082820854038
  C        16.8608676943       18.9877806021        19.425692359538
  C        17.8520303258       18.0153731520        19.667909417438
  C        17.5932612901       17.0233529872        20.631538617638
  C        16.3673880956       16.9738925049        21.292198906438
  C        19.1189074235       18.0022285174        18.896319291638
  C        19.0933183590       17.9754858377        17.474546068238
  C        17.8733305857       17.8584965508        16.735333964838
  C        28.7625543428       14.0218634184       10.3129080789
  C        28.1448056475       12.8607203894       11.0128954572
  C        28.8867407825       12.1013591167       11.9297761096
  C        28.2853188453       11.0476296839       12.6117154997
  C        26.9316899259       10.7261336137       12.3922754349
  C        26.2090266627       11.4634716197       11.4374881742
  C        26.8061120786       12.5231435531       10.7599837066
  C        26.2709868759        9.6541403401       13.1692031060
  C        26.2844274934        9.6775419508       14.5896044216
  C        26.8132442183       10.7831928451       15.3280856639
  C        32.1797929571       21.2352114785       10.1463101011
  C        32.7744459041       22.4021822696       10.8648574897
  C        32.0223157174       23.0858017395       11.8330917914
  C        32.5910511212       24.1258844811       12.5622371966
  C        33.9281618940       24.5120184252       12.3448847498
  C        34.6626739733       23.8475487514       11.3444163296
  C        34.0963202892       22.8018187518       10.6170921154
  C        34.5542689911       25.5879377365       13.1484168234
  C        34.5346557842       25.5615191249       14.5704336868
  C        34.0175274859       24.4486757777       15.3062135654
  C        25.6774691985        8.6029467061       15.3153643168
  C        25.6231012533        8.6074111140       12.5033334743
  C        32.0855171331       21.2022878670        21.869308121238
  C        32.6538283950       22.3618037046        21.122094583638
  C        31.9176176527       23.0175195177        20.123059128238
  C        32.4919420206       24.0559107749        19.391938148838
  C        33.8156102039       24.4698681352        19.640555868238
  C        34.5333985412       23.8277414516        20.668278287838
  C        33.9650279257       22.7851962456        21.394271080838
  C        34.4561884558       25.5552009530        18.860442245438
  C        34.4829999121       25.5453270084        17.438234028138
  C        33.9914130154       24.4413011843        16.672689474638
  C        40.6114625376       17.1264033619        16.742182613338
  C        40.5995766884       17.1345875625        19.552215509838
  C        28.7406480264       14.0644649459        21.802424557038
  C        28.1357660444       12.9170549267        21.066830560838
  C        28.8791151738       12.2138699985        20.106378927438
  C        28.3011223458       11.1572185765        19.407439388338
  C        26.9655272526       10.7772257429        19.646458333538
  C        26.2395844327       11.4666958003        20.635635622238
  C        26.8150323221       12.5248971621        21.335100903238
  C        26.3255643255        9.6848568905        18.876555238038
  C        26.3126000618        9.6940484853        17.454913700338
  C        26.8231618507       10.7928766174        16.694165474738
  C        18.1352573661        3.1809083439       10.3171227319
  C        17.4060161557        4.2781140545       11.0159188657
  C        16.3902908058        3.9997213186       11.9434078698
  C        15.7424438495        5.0396816327       12.6068328312
  C        16.0942823784        6.3834151767       12.3671261732
  C        17.0837490063        6.6529780723       11.4034612190
  C        17.7329359885        5.6156478739       10.7384748491
  C        15.4698127931        7.4910849099       13.1301041268
  C        15.4850833115        7.4904263071       14.5518159672
  C        16.1868256341        6.4969459698       15.3049884124
  C        42.9457483860       31.8593609152       10.0728365442
  C        43.6460077203       30.7716389224       10.8168267750
  C        44.5914569239       31.0929620081       11.8029728001
  C        45.1971237578       30.0874155621       12.5506633301
  C        44.8707296049       28.7343528170       12.3357685179
  C        43.9450160904       28.4200074110       11.3224508544
  C        43.3362542009       29.4251508664       10.5743695784
  C        45.4883105580       27.6550592078       13.1389642500
  C        45.4925433796       27.6807210148       14.5606586484
  C        44.8055334706       28.6888053040       15.3073029630
  C        14.8559769520        8.5628517979       15.2641555113
  C        14.8743975599        8.5627538014       12.4514859462
  C        42.9464800280       31.9616098358        21.798779148838
  C        43.6917589463       30.8854489974        21.085375175938
  C        44.6563005571       31.1913452761        20.113023255338
  C        45.2778221743       30.1717441105        19.395312509538
  C        44.9540701408       28.8214295839        19.632992486338
  C        44.0206865570       28.5237767344        20.643869809138
  C        43.3924311811       29.5405550776        21.356038387738
  C        45.5630515128       27.7240049901        18.847733170538
  C        45.5332405696       27.7172707550        17.426435272538
  C        44.8268951988       28.7074865023        16.673485192238
  C        35.0986988802       26.6354498392        16.737613748638
  C        35.0660848107       26.6124287332        19.548133984338
  C        18.1484152759        3.2469863343        21.696241409638
  C        17.4297463996        4.3437579989        20.986964169338
  C        16.4144491750        4.0524625757        20.063501838338
  C        15.7660896313        5.0830805470        19.388145270538
  C        16.1207863689        6.4283107883        19.610823469938
  C        17.1122772583        6.7117187123        20.567946649438
  C        17.7600035583        5.6828238361        21.247683628538
  C        15.4902108524        7.5239783769        18.838396432138
  C        15.4961069070        7.5073737675        17.417262267038
  C        16.1930314648        6.5057667043        16.670591359438
  H        10.6721455423       12.4659909967        19.894342610038
  H        11.6940967694       10.5510484769        18.652496554538
  H        15.3911852022       11.1680622382        20.762142818738
  H        14.3509959750       13.0710174321        22.007359431938
  H        13.3753040238       11.6308071217        17.191021203738
  H        50.3227852112       22.7485004788        19.976743532938
  H        49.3195889832       24.6229581834        18.670751643238
  H        45.6420614228       24.1609688266        20.853475135938
  H        46.6630076491       22.2900157994        22.161693725138
  H        47.6297093603       23.5757707237        17.236056113838
  H        14.8716836064        8.5880949028        20.598310987338
  H        50.2869635520       22.7028159068       12.0601842246
  H        49.2688926772       24.5756098530       13.3602692684
  H        45.6101146297       24.1087769096       11.1463064948
  H        46.6522858239       22.2535056395        9.8320206216
  H        47.6075874534       23.5516839094       14.7969271887
  H        40.6299089791       17.0693571639       11.4097439428
  H        48.6868776385       14.0950591924        23.789784130938
  H        10.6809841080       12.4668931141       12.0934188168
  H        11.6889950456       10.5248796785       13.2971062860
  H        15.3926927195       11.1579567422       11.2049105841
  H        14.3644030655       13.0864359596        9.9895632809
  H        13.3749110172       11.6217490263       14.7530573024
  H        47.9300918074       14.2182426732        9.7109458046
  H        47.7797877095       14.3726941062        22.484731932338
  H        49.0824699937       18.5519385491       10.8669647822
  H        10.4159286254       14.1343685411        7.9987426859
  H        24.4959814687        3.0273658914        19.923129211638
  H        25.6413662533        4.8878783601        18.701679823938
  H        23.2558537381        7.7532987189        20.845370080738
  H        22.1282928960        5.8832827119        22.068213274138
  H        23.8079738930        5.7874525987        17.283904600038
  H        36.3612840596       32.1883788022        19.970216245838
  H        35.2187615835       30.3685150020        18.702099579138
  H        37.4796750163       27.4364774785        20.891430499338
  H        38.6020749257       29.2694732619        22.169224251638
  H        36.9926743654       29.4512384441        17.285841216438
  H        25.7534749270        8.6131975628        20.648097119738
  H        36.4534776411       32.2412257817       12.1131466315
  H        35.3409102215       30.4270606866       13.4111349688
  H        37.5407512164       27.4865267379       11.1698086864
  H        38.6275170856       29.3125217719        9.8586990313
  H        37.0271212371       29.4706854980       14.8486573492
  H        46.1089143665       26.5873221576       11.3856550689
  H        44.6683872923       35.1162820645        23.803790575638
  H        24.4177654647        3.0356625761       12.0951098062
  H        25.5338236687        4.8781360851       13.3594838457
  H        23.1220604429        7.7607370085       11.2689007709
  H        22.0183885521        5.9064138146       10.0037651946
  H        23.7639954952        5.7865282822       14.8450665792
  H        44.9544539613       34.3906552227        9.6951605475
  H        44.9024872010       34.2069473509        22.480533029338
  H        40.6662874706       33.2088464705       10.8530275158
  H        23.1498908184        1.9577453613        8.0063140901
  H        25.8536411013       19.6600848842        19.836504632438
  H        23.6722859859       19.7348398844        18.627223985538
  H        22.3294104371       16.3023813953        20.844778299238
  H        24.5111305876       16.2474500102        22.059531642238
  H        23.7219273553       17.7267034446        17.218756764338
  H        35.1232932370       15.4918563034        19.938221380638
  H        37.2459628972       15.4528637849        18.624874887538
  H        38.7076670238       18.7916531882        20.910920526538
  H        36.5834560379       18.8065964444        22.230332285238
  H        37.2236441959       17.4321583789        17.230841537238
  H        20.3615662847       18.0387752701        20.648196190238
  H        35.1393539357       15.4481170866       12.1608976616
  H        37.2903946104       15.3952993764       13.4247450185
  H        38.7159571018       18.7391503051       11.1236584517
  H        36.5646878538       18.7662634451        9.8496888709
  H        37.2325191366       17.4122626401       14.7901186953
  H        35.1578162611       26.6810616663       11.4047193269
  H        28.5091996648       21.0807263056        23.961940066738
  H        25.7277989403       19.6820125001       12.1085589165
  H        23.5433442243       19.7450532273       13.3190571033
  H        22.3094336744       16.1729363393       11.2664681583
  H        24.4976154592       16.1265912540       10.0539742203
  H        23.6982506685       17.7068360375       14.7810862080
  H        29.0072913936       21.7134731551        9.7689215815
  H        29.1476925012       21.7411180136        22.601616131038
  H        32.1089526973       18.5577621028       10.9748363076
  H        27.3516837445       19.0872890032        8.0737755782
  H        14.8434764353       19.6600322817       12.1244252918
  H        17.0073559369       19.7162364041       13.3673390078
  H        18.3006029566       16.1964481966       11.2608660252
  H        16.1328021438       16.1564003992       10.0170984831
  H        16.9174496422       17.7232330504       14.8433154972
  H        46.0864196340       15.4423169654       12.0679340872
  H        43.9586948622       15.3819252195       13.3692915539
  H        42.5380821550       18.8040051870       11.1841103740
  H        44.6667504301       18.8399349720        9.8730618932
  H        44.0140243305       17.3358121296       14.8181501596
  H        20.2816064735       17.9369866813       11.4115973803
  H        46.0404507542       15.3985746302        20.008095174038
  H        43.9112883909       15.3447974142        18.710753976338
  H        42.5215830413       18.8006590998        20.861512394738
  H        44.6572034983       18.8407435719        22.159738432138
  H        44.0041653718       17.3268661299        17.257392405238
  H        46.1993126492       26.6825944313        20.613209073738
  H        52.7410422474       21.0626667083        8.1946279605
  H        14.8673015912       19.6880640112        19.894928474438
  H        17.0643797040       19.7825617896        18.711216557438
  H        18.3493086623       16.2655738895        20.826772508638
  H        16.1536255075       16.1947356863        22.019935050438
  H        16.9407816607       17.7483229917        17.280620521738
  H        52.3223533459       21.6733424739        22.284249907538
  H        52.0133473449       21.7022517846        9.4956393417
  H        49.0673654827       18.6076899915        21.193762549938
  H        13.2473222930       19.0169469050        23.966857983638
  H        29.9316963754       12.3528233184       12.0959442116
  H        28.8591799187       10.4598505822       13.3249012427
  H        25.1626852766       11.2213021283       11.2632955912
  H        26.2477606820       13.1183845615       10.0416487395
  H        27.1860130764       11.6450746337       14.7824642050
  H        30.9945854578       22.7767713254       12.0085089178
  H        32.0017315468       24.6543258963       13.3084750463
  H        35.6974551345       24.1353225012       11.1699886841
  H        34.6703805387       22.2645993918        9.8655905764
  H        33.6648609273       23.5797611707       14.7580382507
  H        25.6370120830        8.5902310434       11.4150783829
  H        30.8975970544       22.6985523611        19.921374394438
  H        31.9128695784       24.5630964484        18.623310659938
  H        35.5581599282       24.1344523426        20.867318308838
  H        34.5264573824       22.2685236065        22.169015896438
  H        33.6176307880       23.5665874839        17.197454761338
  H        40.5954626369       17.0926279217        20.639751375638
  H        32.5262102081       14.1381121432        8.2464634458
  H        29.9114608574       12.5051347705        19.926381077338
  H        28.8840446039       10.6080457347        18.671215676338
  H        25.2063297662       11.1838095597        20.825896578238
  H        26.2521378105       13.0736351450        22.086393061638
  H        27.2014026489       11.6636193547        17.221788858738
  H        33.2970817024       14.1978536611        22.424917443538
  H        33.4059025205       14.4015905144        9.6142415248
  H        32.1362987990       18.5012499491        21.221445323338
  H        30.2205261159       14.1443170698        8.0731213309
  H        16.1182829591        2.9632002521       12.1298010732
  H        14.9529346520        4.8202741080       13.3224224949
  H        17.3661510606        7.6858644610       11.2103597422
  H        18.5149680941        5.8183279697       10.0106263125
  H        16.7535362015        5.7397255746       14.7714837799
  H        44.8277336100       32.1400413667       11.9771751429
  H        45.9369589368       30.3411854743       13.3066307804
  H        43.6824140055       27.3779272856       11.1522635366
  H        42.5997983905       29.1898194508        9.8095492995
  H        44.2302111200       29.4366041846       14.7690111911
  H        14.8506490378        8.5459416666       11.3632646810
  H        44.8998326741       32.2340206137        19.921528317438
  H        46.0246989735       30.4129792947        18.642048606138
  H        43.7638036689       27.4840431200        20.835518881238
  H        42.6460242393       29.3177772270        22.114580224438
  H        44.2684950702       29.4704454793        17.208076256338
  H        35.0185532733       26.6242849567        20.635447988238
  H        36.6052360129       35.1339438909        8.1806830549
  H        16.1433529336        3.0128819212        19.893833856938
  H        14.9736893194        4.8562410665        18.678143423138
  H        17.3958562605        7.7471814475        20.744740221538
  H        18.5430074148        5.8932865045        21.972305098538
  H        16.7646115402        5.7556463206        17.209041610638
  H        36.2784408886       34.4824320081        22.262864358838
  H        36.3809016366       34.2090174201        9.4995594548
  H        40.5793901520       33.2017865213        21.143486542238
  H        17.4704972372        1.9471763950        23.963671076338
  H        28.8588771809       18.9245058388       12.3867596169
  H        30.4445847152       19.7839217103        19.880083617938
  H        30.8185223449       15.5675564866        19.684143403638
  H        30.6554891783       15.4202935251       12.3316173399
  H        29.5446553128       15.9774898591       14.7068770159
  H        32.1414846167       19.3274034824        17.340160111038
  H        33.0545066999       17.1601179747        17.518892311638
  H        27.8262353535       18.4827120255        17.939982293438
  H        30.6313484191       19.6024910111       14.4870393186
  H        18.8536231280        0.8687786594       12.3353117109
  H        40.5282602150       35.2290765921        19.941928734638
  H        42.3241528295       34.4193659491        19.579811313238
  H        22.0873856091        0.6921533622       12.3512220308
  H        11.5967707047       18.7128200243       12.3823924346
  H        52.2647997949       18.4307684274        19.667308281838
  H        49.2547140551       16.4766554623        19.574367544738
  H        10.1499605031       15.7982349090       12.2927968477
  H        50.8497571862       17.6925172083        19.943959534338
  H        10.0458965568       17.3946708914       12.0519408214
  H        20.2152661233        0.0020640628       12.0418295917
  H        39.1838639358       36.1246061056        19.676414259938
 Ni        31.2401392530       17.8005010428        18.985151434838
 Ni        31.2460239655       16.4714456194        16.156017630038
 Ni        29.8385544394       18.7919206391        16.565828000638
 Ni        30.4408627120       17.5242487530       13.2468393922
  O        10.6498850228       14.3652132983        21.475602699238
  O        12.6131738341       14.6576039277        22.573632696038
  O        49.1477934984       16.8459293182        23.979554266038
  O        50.3502349378       20.9358195719        21.637836038938
  O        48.3485375911       20.5932661123        22.655722361838
  O        11.0513030983       17.0539012974        22.490461698138
  O        50.3208671292       20.8816930793       10.4068216310
  O        48.3466830639       20.5867121129        9.3270656097
  O        49.5434482305       18.2483938251       10.0682389387
  O        12.3591570077       18.6245542643        7.9995275612
  O        48.6931882571       14.1486780235        22.741068725338
  O         8.2098064214       14.2105123019        9.3225793720
  O        10.7351460545       14.5067712875       10.6643182523
  O        12.5716918850       14.5828554829        9.3284703934
  O        22.8443425186        2.0423794192        21.477521018438
  O        21.6047914476        3.5916963982        22.579877838038
  O        42.0580440366       34.1370559337        23.968484346138
  O        37.9812187148       33.1361330312        21.562044257938
  O        39.2173894001       31.5750516772        22.655696778138
  O        20.3081815337        1.0389039628        22.491635668438
  O        38.0242269196       33.1847197092       10.4157756406
  O        39.2184134927       31.5829543163        9.3273378748
  O        40.6521308613       33.7690171503       10.0600561772
  O        18.2553054806        1.3761829044        7.9967091144
  O        44.6222692170       35.1004902922        22.748563909638
  O        24.2054523788       -0.0000832602        9.3207251257
  O        22.7517420104        2.0552773785       10.5827534917
  O        21.6226359651        3.5939506710        9.3401764206
  O        27.5508977259       18.6928028442        21.399203693238
  O        26.7283949552       16.9853223707        22.648925113838
  O        30.6349236003       19.3512243906        8.0755462810
  O        33.5842635651       16.2784723267        21.658730263038
  O        34.2730265072       18.1697388762        22.730243345638
  O        29.5638011000       17.0565208207        22.573596169338
  O        33.5223780239       16.3222277133       10.5004318893
  O        34.2663580349       18.1735351703        9.4101567860
  O        31.6432165890       18.3050631716       10.1605923547
  O        30.2937364271       15.1123182769        8.0750360004
  O        28.5520968681       21.0279177337        22.892409659438
  O        28.5152847439       20.9537334657        9.4133835364
  O        27.4638536023       18.6736713075       10.6678265754
  O        26.6887417921       16.9325165770        9.4182395206
  O        13.1470250464       18.6936114280       10.5866151441
  O        13.9186695207       16.9162169668        9.4046539953
  O        50.5958655262       19.3501576892        8.0202286659
  O        47.6814899612       16.3273304974       10.4174701348
  O        46.9506244985       18.1758389928        9.3250429696
  O        11.0694050095       17.0155920591        9.4894322355
  O        47.6748028073       16.3361189641        21.642045318638
  O        46.9260915205       18.2358668589        22.653576686538
  O        49.5684416272       18.3176637408        21.972032751638
  O        10.3186871432       15.1002373754        7.9970648943
  O        52.6707246709       21.0279209060        9.2418065125
  O        12.1468218805       20.8912239669        22.663057548738
  O        13.1071926144       18.6142151561        21.315419154538
  O        13.9581290521       16.9878739719        22.653682072938
  O        29.9868234799       14.2960483116       10.5733505976
  O        28.0115003607       14.6542760627        9.4910924318
  O        32.1282762407       16.8411408959        8.0869424991
  O        30.9648645673       20.9469433360       10.4101173223
  O        32.9460533319       20.5963663131        9.3378768439
  O        29.5612785386       17.0765355477        9.5010375265
  O        30.8530792691       20.8873283190        21.648877804038
  O        32.8690241516       20.5860372232        22.658908623738
  O        31.6891447721       18.2468561249        22.049763996938
  O        28.2315774286       18.6777848967        8.0743607204
  O        32.4955052053       14.2087504855        9.3248814796
  O        32.4071541745       14.2089546386        22.815439953238
  O        29.9160713231       14.4359748239        21.477178033238
  O        28.0333798276       14.5898079817        22.733688848938
  O        17.8891728106        1.9665070363       10.6628422537
  O        18.9560519466        3.5270824885        9.4080174651
  O        39.1685082259       34.1385852973        7.9970974452
  O        43.2801561519       33.0587154568       10.3317173796
  O        42.0343256758       31.5063874461        9.2415651233
  O        20.3172187691        1.0361841785        9.4801655442
  O        43.2761112722       33.1825328931        21.564652743338
  O        42.0052303913       31.5841007179        22.572763110138
  O        40.5788833623       33.7748180670        21.925346472638
  O        22.3670805869        1.3841315413        7.9977587140
  O        36.6727628868       35.0996820272        9.2333205700
  O        16.4455813906        0.0641173501        22.658022861638
  O        17.9364585529        2.0433419556        21.316103748838
  O        18.9187919633        3.5931808066        22.655601218138
  O        30.0323759669       18.9141335639        20.068766637338
  O        29.7849791918       18.9050533078       12.0729026550
  O        31.1777252694       16.3361703350        20.161562176938
  O        30.8837362497       16.2798044778       11.9283895508
  O        32.1894302473       16.7689480970        17.736930499538
  O        28.5573208080       19.1201477454        17.995099078138
  O        30.4970204952       16.0643626570       14.4980758045
  O        30.7470104546       18.6912970011       14.8220089117
  O        31.2986301407       19.3294478138        17.825843797538
  O        39.4569124347       35.2438713930        19.991758893538
  O        19.1415414339        0.0043520142       11.9904886554
  O        41.9696283495       35.1728931510        20.076858937038
  O        21.6910840302       -0.0695254882       11.8959221831
  O        51.3649598086       18.6142328518        19.995161190938
  O        10.7509424786       18.7471970979       11.9049447330
  O        50.0791899114       16.4128038492        20.081615192638
  O         9.5242052800       16.4831511180       11.9911882496
 Zr         9.2964372319       16.0527470390        22.172158794738
 Zr        49.8360556143       16.0068088363        9.7465758656
 Zr        22.0736017772        0.0298892397        22.178534084738
 Zr        42.4609719866       35.1530247894        9.8006364677
 Zr        29.5969483672       19.0674516598        22.303206806038
 Zr        29.5702307804       19.1606210672        9.8730472686
 Zr        11.0373900321       19.0521078267        9.8275590243
 Zr        11.0436720333       19.1548564012        22.240802481038
 Zr        31.3091345616       16.0600888371        9.8414956669
 Zr        31.3869133368       15.9986095977        22.285905277038
 Zr        18.6011946145       -0.0013931679        9.7635795654
 Zr        18.5066307842       -0.0078872032        22.203299347938
 Zr        12.3018045623       16.3235222134        23.979642860538
 Zr        48.6158436041       18.8329045804        8.0102486290
 Zr        20.3144024778        2.4729332803        23.979544644038
 Zr        40.6433472995       32.6871345691        23.967793576038
 Zr        28.3098357721       16.3333267430        8.0653776638
 Zr        32.6275593625       18.8170279796        8.0669582030
  H        29.0118565319       18.9805775794        18.913374775038
  H        28.6925454231       18.3728194013       15.780862718838
  H        31.5476930231       15.0813296721        16.317060976238
