     573
 i =      117, E =     -4762.8168712003
  C        11.8586508723       14.0535090698        21.731381655138
  C        12.4561306616       12.8905170105        21.013180680638
  C        11.7046332506       12.1719386468        20.071094084038
  C        12.2810365493       11.1097728901        19.378706716538
  C        13.6214617150       10.7396339384        19.606805523538
  C        14.3543733540       11.4427864053        20.580783173438
  C        13.7814641982       12.5077174798        21.272331542138
  C        14.2610845946        9.6490559275        18.833383063938
  C        14.2565280280        9.6570789108        17.411682935638
  C        13.7433973340       10.7592058717        16.657750802838
  C        49.1266042658       21.2333139646        21.869539786538
  C        48.5498793818       22.4011572742        21.142498195938
  C        49.2999181093       23.0684530283        20.161465473238
  C        48.7329895493       24.1075583031        19.428247878538
  C        47.4024425782       24.5092450466        19.656841612638
  C        46.6714907459       23.8603964119        20.670386476238
  C        47.2339262099       22.8155181251        21.399778056438
  C        46.7722567111       25.5869238878        18.859517920638
  C        46.7614761905       25.5573705999        17.437753541138
  C        47.2614741990       24.4423122471        16.694250350038
  C        14.8605610319        8.5707913280        16.698420340238
  C        14.8917919956        8.5970483050        19.510028452038
  C        49.1131808471       21.2035037497       10.1453612503
  C        48.5279250500       22.3648525251       10.8724070138
  C        49.2671545879       23.0255336731       11.8653722286
  C        48.6908384109       24.0600924679       12.5968063995
  C        47.3604372539       24.4569438191       12.3585468034
  C        46.6400526236       23.8120969036       11.3349535350
  C        47.2135750699       22.7761825842       10.6031730215
  C        46.7220054062       25.5318840453       13.1496025912
  C        46.7338336417       25.5282497765       14.5713050130
  C        47.2492704155       24.4290438369       15.3276963359
  C        40.6206142021       17.0793641617       15.3075756426
  C        40.6289899429       17.0999088907       12.4978219011
  C        11.8829185747       14.0864839246       10.2854622804
  C        12.4721999092       12.9106224821       10.9895844764
  C        11.7148665676       12.1777468077       11.9161076809
  C        12.2814603278       11.0952976458       12.5845248197
  C        13.6201251442       10.7212152833       12.3523239570
  C        14.3578288547       11.4363528740       11.3909788052
  C        13.7924079670       12.5175173460       10.7182900973
  C        14.2538393446        9.6245777898       13.1227816842
  C        14.2526923517        9.6446955350       14.5446222853
  C        13.7428510733       10.7536594116       15.2917028051
  C        22.5117560795        3.2442581179        21.742909568838
  C        23.2264005436        4.3497181364        21.043275146438
  C        24.2217125633        4.0697009032        20.095357241438
  C        24.8485216918        5.1093357655        19.413155195238
  C        24.4957504738        6.4511236724        19.658980433938
  C        23.5287636141        6.7226774263        20.643975947838
  C        22.8972392817        5.6848515202        21.324433080138
  C        25.1001814262        7.5581957606        18.882962858738
  C        25.0669291086        7.5537411523        17.461538998638
  C        24.3628741732        6.5552253060        16.716265205738
  C        38.3028797095       31.9292140485        21.838600435738
  C        37.5743394022       30.8398746704        21.128594312238
  C        36.6149413229       31.1435502586        20.150573123438
  C        35.9984403818       30.1231508099        19.431978984938
  C        36.3266260449       28.7740394430        19.669780306738
  C        37.2565457854       28.4779155717        20.684164344438
  C        37.8771077113       29.4969531893        21.401710215438
  C        35.7241417080       27.6822135246        18.873162298738
  C        35.7516330788       27.6977643570        17.451793079338
  C        36.4558114765       28.7006840237        16.713682465638
  C        25.6873095185        8.6249112190        16.741301816638
  C        25.7017917442        8.6306854298        19.553009983838
  C        38.3280164278       31.9614756633       10.1560699559
  C        37.6055022758       30.8880506464       10.8966756899
  C        36.6759919252       31.1960630220       11.9019413466
  C        36.0653490636       30.1771848235       12.6305559875
  C        36.3697267452       28.8244087264       12.3780753584
  C        37.2764132105       28.5264517240       11.3422657077
  C        37.8891279509       29.5417750786       10.6147324017
  C        35.7622120071       27.7251800024       13.1627982392
  C        35.7714188654       27.7197711794       14.5848813638
  C        36.4648428990       28.7115526957       15.3471789574
  C        46.1357735246       26.6208518027       15.2814439778
  C        46.0879256910       26.5801711324       12.4735469357
  C        22.4598639895        3.2557425191       10.2576913894
  C        23.1517881339        4.3653484732       10.9812370017
  C        24.1525078524        4.0808766958       11.9238780361
  C        24.7781580467        5.1122041515       12.6201536002
  C        24.4232606204        6.4574897487       12.3959783951
  C        23.4455711329        6.7352246493       11.4219358324
  C        22.8151391765        5.7041343068       10.7263741164
  C        25.0520726604        7.5567807401       13.1699514222
  C        25.0429911276        7.5521260105       14.5927809615
  C        24.3495678180        6.5554580938       15.3495749429
  C        26.6178928888       17.8595299248        21.770254291738
  C        25.3114655587       17.9076464086        21.046824621938
  C        25.0466910938       18.9091765051        20.099032192938
  C        23.8336834803       18.9273098238        19.413157292938
  C        22.8480108220       17.9485317781        19.654086241138
  C        23.1084454784       16.9701884347        20.632356716238
  C        24.3236553762       16.9456653503        21.314979211538
  C        21.5751442884       17.9332285170        18.889201069338
  C        21.5768546709       17.9140665529        17.466735944438
  C        22.7834388624       17.7936251617        16.707566308438
  C        34.4404449246       17.1912162234        21.904395525038
  C        35.7331525079       17.1371626321        21.162235983138
  C        35.9492725744       16.1525584574        20.185068361438
  C        37.1288583334       16.1395818251        19.446424730738
  C        38.1272912525       17.1081379049        19.666713283138
  C        37.9163232556       18.0718261177        20.671201702738
  C        36.7328414179       18.0914880219        21.405757267538
  C        39.3799810405       17.1142438836        18.876836062138
  C        39.3705327092       17.1117859303        17.454921577838
  C        38.1602454351       17.2215755561        16.700447557738
  C        20.3310028223       17.9308057027        16.756856036738
  C        20.3499309843       17.9335248616        19.570574841638
  C        34.4393760158       17.2372552574       10.1862372005
  C        35.7388857540       17.1381360160       10.9113774932
  C        35.9472003911       16.1511552686       11.8862474025
  C        37.1380199756       16.1176612881       12.6078073377
  C        38.1490588064       17.0704999578       12.3749898594
  C        37.9465737597       18.0315683207       11.3668672364
  C        36.7554300001       18.0696148303       10.6481694221
  C        39.3995283237       17.0830092803       13.1667186646
  C        39.3807451784       17.0958901871       14.5881973371
  C        38.1651762256       17.2125480605       15.3337686441
  C        35.1414158617       26.6407618114       15.2898477374
  C        35.1737045705       26.6528054271       12.4808637609
  C        26.5760903146       17.8277262007       10.3258349708
  C        25.2621074340       17.8710958293       11.0348731070
  C        24.9980529861       18.8762897246       11.9776168531
  C        23.7797017002       18.9023784413       12.6508746461
  C        22.7960363480       17.9234846116       12.4049682594
  C        23.0551414562       16.9425886909       11.4305862211
  C        24.2741258799       16.9142473677       10.7557273618
  C        21.5313764603       17.9059692991       13.1765564680
  C        21.5541459826       17.8979688440       14.5980957167
  C        22.7720667553       17.7852779341       15.3413551051
  C        14.0470487605       17.8288781340       10.2887426652
  C        15.3522425005       17.8859661288       11.0137096911
  C        15.6097827411       18.8893042964       11.9609434262
  C        16.8192234948       18.9100803639       12.6532828928
  C        17.8056992758       17.9303824851       12.4206153728
  C        17.5529846874       16.9512958150       11.4411797640
  C        16.3429440482       16.9259334905       10.7504998984
  C        19.0748770310       17.9131477326       13.1900322762
  C        19.0726940668       17.9099833685       14.6126265926
  C        17.8651713808       17.8105518930       15.3730355612
  C        46.8021863227       17.2158415453       10.1564025568
  C        45.5082031205       17.1448023477       10.8956704806
  C        45.3016834513       16.1584866186       11.8727490472
  C        44.1173259693       16.1299264302       12.6044065470
  C        43.1084470124       17.0874961566       12.3818906157
  C        43.3113852546       18.0524799500       11.3766749569
  C        44.4966921098       18.0848873336       10.6456636453
  C        41.8554877217       17.0908346180       13.1724441534
  C        41.8652014955       17.0930146414       14.5946551716
  C        43.0761631784       17.1933943817       15.3494909910
  C        20.3189013639       17.9219818385       15.3219883498
  C        20.2997781236       17.8938257051       12.5088701917
  C        46.7857219866       17.2328949900        21.875717977138
  C        45.4853187801       17.1298917762        21.154222344838
  C        45.2686332621       16.1312654897        20.192493812538
  C        44.0820594426       16.1038302709        19.463796769038
  C        43.0821901561       17.0724227373        19.678684854238
  C        43.2905075226       18.0427108904        20.676838516838
  C        44.4779008900       18.0760496830        21.401295006438
  C        41.8343035604       17.0894692281        18.883778153938
  C        41.8545565739       17.0916227257        17.462382736438
  C        43.0712243320       17.1900972312        16.716304873338
  C        46.1534863876       26.6372522399        16.715990412338
  C        46.1621807440       26.6559859991        19.525638431838
  C        14.0447992657       17.8309727526        21.698114351638
  C        15.3653503239       17.9036803341        21.006250423038
  C        15.6396925429       18.9197586707        20.078756167238
  C        16.8685707143       18.9562092780        19.423629119438
  C        17.8504535035       17.9756726273        19.670434654938
  C        17.5827181055       16.9879228088        20.635564240638
  C        16.3558768291       16.9510449093        21.294191737438
  C        19.1181759695       17.9512683592        18.902315362938
  C        19.0953733159       17.9285878394        17.480776620738
  C        17.8762071670       17.8188471171        16.739090003038
  C        28.8088860155       14.0931921574       10.3956319853
  C        28.1948158404       12.9200944441       11.0819798749
  C        28.9130628667       12.1816771550       12.0341783192
  C        28.3108840722       11.1074508482       12.6843748177
  C        26.9764427210       10.7476968107       12.4064615605
  C        26.2805521971       11.4660880650       11.4176454345
  C        26.8801871742       12.5405705883       10.7660733802
  C        26.3041285813        9.6693894054       13.1664812156
  C        26.2885674372        9.6979456482       14.5873415205
  C        26.7890683714       10.8124151303       15.3322779472
  C        32.1817197749       21.2368635250       10.1422723499
  C        32.7765810380       22.4005042893       10.8627184586
  C        32.0278796791       23.0774841784       11.8378358710
  C        32.5977571867       24.1167361822       12.5665694936
  C        33.9318299916       24.5071838456       12.3410819838
  C        34.6630126033       23.8487754252       11.3343587666
  C        34.0957285523       22.8039032521       10.6074277492
  C        34.5592989957       25.5833098337       13.1414851746
  C        34.5497292258       25.5559060294       14.5633770098
  C        34.0398427086       24.4418536880       15.3025796238
  C        25.6795663676        8.6202959743       15.3067495371
  C        25.6687200512        8.6178470317       12.4932429880
  C        32.1208878058       21.1985892482        21.837499949138
  C        32.7030993043       22.3634210720        21.110882324138
  C        31.9625237005       23.0397345956        20.129278566238
  C        32.5404674120       24.0756203018        19.400150745738
  C        33.8726872362       24.4659053122        19.635582539838
  C        34.5951135900       23.8079351106        20.649530143238
  C        34.0218139991       22.7664003279        21.373708769338
  C        34.5116561014       25.5476767031        18.851511490238
  C        34.5236441323       25.5380077287        17.429474328938
  C        34.0255010684       24.4329267447        16.669436016638
  C        40.6149304754       17.0833455386        16.742394352238
  C        40.6053256919       17.1198555149        19.552674036138
  C        28.7405229998       14.0674656886        21.808229851338
  C        28.1322907775       12.9219678238        21.069857877238
  C        28.8557501100       12.2518336498        20.071533974638
  C        28.2748610190       11.1948728056        19.374901691838
  C        26.9544695541       10.7842173186        19.648014671638
  C        26.2483588363       11.4444399386        20.671614339738
  C        26.8275690567       12.5002438999        21.371928699738
  C        26.3100912874        9.6957649656        18.875513325438
  C        26.2925221758        9.7121354089        17.453575716538
  C        26.7882816329       10.8208086602        16.697911556338
  C        18.1354527841        3.1808315430       10.3171524423
  C        17.4061707468        4.2781810524       11.0158523741
  C        16.3904138100        3.9998583980       11.9433076961
  C        15.7427217113        5.0398790463       12.6068097747
  C        16.0947268503        6.3835638343       12.3671547030
  C        17.0841604475        6.6530410261       11.4034450764
  C        17.7332127260        5.6156634850       10.7383954962
  C        15.4704092286        7.4913140141       13.1301532688
  C        15.4858093896        7.4907662235       14.5518631460
  C        16.1874032274        6.4971742800       15.3050299154
  C        42.9458855598       31.8594811878       10.0728749661
  C        43.6462731959       30.7718153934       10.8168399822
  C        44.5921391447       31.0931259333       11.8025862878
  C        45.1978475869       30.0875770572       12.5502462572
  C        44.8710748465       28.7345590941       12.3356644142
  C        43.9448442784       28.4202138896       11.3228388139
  C        43.3360207103       29.4253676672       10.5748114291
  C        45.4887327622       27.6552795646       13.1388380327
  C        45.4929958349       27.6809365032       14.5605287929
  C        44.8058840090       28.6889821024       15.3071265135
  C        14.8568041672        8.5632580611       15.2641951916
  C        14.8750028951        8.5629806080       12.4515264287
  C        42.9464119685       31.9615278553        21.798755816238
  C        43.6915611533       30.8853911197        21.085160665938
  C        44.6565381606       31.1912740488        20.113237812038
  C        45.2780411836       30.1716728798        19.395505657038
  C        44.9538474748       28.8213973265        19.632779742838
  C        44.0198639332       28.5237380417        20.643081975838
  C        43.3916230598       29.5405215884        21.355260212438
  C        45.5629704420       27.7240043697        18.847560314038
  C        45.5334268473       27.7173689185        17.426261185038
  C        44.8271247459       28.7076119929        16.673310005838
  C        35.1297840768       26.6304138962        16.724606022438
  C        35.1231823588       26.6053652915        19.534629224638
  C        18.1485957162        3.2468712660        21.696407140838
  C        17.4299913310        4.3438139031        20.987081793738
  C        16.4147207733        4.0525871869        20.063590895838
  C        15.7664439635        5.0832509961        19.388184153338
  C        16.1212187121        6.4284495711        19.610869786238
  C        17.1126882925        6.7117938720        20.568031514438
  C        17.7603244997        5.6828442312        21.247793193938
  C        15.4907562033        7.5241971104        18.838442108638
  C        15.4967904580        7.5076910065        17.417307035138
  C        16.1936009731        6.5060039594        16.670633120238
  H        10.6726097251       12.4662809031        19.893801954338
  H        11.6948619494       10.5515353041        18.651887348238
  H        15.3912411154       11.1678269313        20.762898223338
  H        14.3507305352       13.0705800933        22.008192572938
  H        13.3763256219       11.6313178804        17.191037638038
  H        50.3226221829       22.7484240096        19.976714029438
  H        49.3194558258       24.6228108019        18.670650067938
  H        45.6419945796       24.1611690187        20.853543075538
  H        46.6628518945       22.2903568898        22.161879638138
  H        47.6299059896       23.5758744466        17.235906547338
  H        14.8719650465        8.5881511299        20.598331601038
  H        50.2871705416       22.7026459096       12.0603503581
  H        49.2691991902       24.5755200228       13.3603492954
  H        45.6106591978       24.1093655690       11.1458652229
  H        46.6526770945       22.2540947910        9.8316162391
  H        47.6080025005       23.5518906182       14.7968274895
  H        40.6315768623       17.0681063917       11.4099224187
  H        48.6870570858       14.0949493278        23.789807312438
  H        10.6815092563       12.4670385075       12.0938174110
  H        11.6897768372       10.5251238165       13.2974882404
  H        15.3930888055       11.1581029089       11.2046332844
  H        14.3645753659       13.0865728765        9.9893829544
  H        13.3759677280       11.6222498153       14.7530684575
  H        47.9301239543       14.2183640164        9.7107635241
  H        47.7799191614       14.3733663103        22.485049943638
  H        49.0825854204       18.5519878658       10.8670430747
  H        10.4159507448       14.1343804135        7.9987786511
  H        24.4816170502        3.0310497392        19.903417751238
  H        25.6203050333        4.8919548695        18.677944555038
  H        23.2490675060        7.7557095047        20.839993630838
  H        22.1282883372        5.8850296458        22.066584636738
  H        23.8027505406        5.7981613664        17.257338346138
  H        36.3773127183       32.1866920505        19.955906288438
  H        35.2538427801       30.3617688177        18.675745662838
  H        37.5172843289       27.4388816257        20.874566951238
  H        38.6206072290       29.2763711541        22.163943847238
  H        37.0212844648       29.4507022397        17.258962700138
  H        25.7431639151        8.6099394386        20.640535254838
  H        36.4529602038       32.2401239414       12.1098356685
  H        35.3392928681       30.4219234338       13.4026742738
  H        37.5233636073       27.4863288727       11.1399982348
  H        38.6116565998       29.3161017917        9.8342371171
  H        37.0381993007       29.4695283060       14.8213191430
  H        46.1091583604       26.5875278158       11.3855075766
  H        44.6681555039       35.1161261102        23.803771996438
  H        24.4307626992        3.0430006859       12.0924023732
  H        25.5579203174        4.8847877754       13.3439078268
  H        23.1600673989        7.7693405590       11.2400399283
  H        22.0443991467        5.9154311974        9.9887499647
  H        23.7785362624        5.7992458442       14.8187280163
  H        44.9535726071       34.3902447185        9.6951286781
  H        44.9015046832       34.2066839587        22.480470704038
  H        40.6653548036       33.2085159430       10.8528585128
  H        23.1503861453        1.9577735307        8.0053351316
  H        25.8010138494       19.6710898500        19.916020592838
  H        23.6338123545       19.7097136320        18.684103197538
  H        22.3593044568       16.2055030047        20.827504462738
  H        24.5355246297       16.1761449371        22.053693949038
  H        23.7243054344       17.6770183597        17.237584853338
  H        35.1787631402       15.4049831925        20.013053799238
  H        37.2933319815       15.3697321518        18.695682903738
  H        38.6791280384       18.8277733692        20.846006569938
  H        36.5537204167       18.8508186004        22.163451109038
  H        37.2219104951       17.3468243233        17.233305267438
  H        20.3554412755       17.9719508871        20.658504708238
  H        35.1586913847       15.4268333295       12.0766499733
  H        37.2973554637       15.3492339856       13.3611136177
  H        38.7199239461       18.7742148883       11.1818952082
  H        36.5792079576       18.8297281067        9.8909667325
  H        37.2303914168       17.3304910003       14.7932800498
  H        35.1465664728       26.6771101229       11.3931043117
  H        28.5093684449       21.0837790592        23.874705643038
  H        25.7597859822       19.6303259730       12.1630323464
  H        23.5743191906       19.6867540442       13.3761939969
  H        22.3042232789       16.1797727810       11.2350554379
  H        24.4895678861       16.1457138843       10.0172398933
  H        23.7042191853       17.6622275316       14.7981860274
  H        29.0026697713       21.7242282002        9.7445431960
  H        29.1688079253       21.7405524033        22.545966877038
  H        32.0777515895       18.5684924182       10.9323825783
  H        27.4084576840       19.0750558691        8.0795711524
  H        14.8516044775       19.6485367250       12.1395402320
  H        17.0147290756       19.6944939757       13.3813099855
  H        18.3037966874       16.1867182352       11.2522777373
  H        16.1365442752       16.1565554971       10.0102559227
  H        16.9231242325       17.6947348955       14.8449825415
  H        46.0868811613       15.4280330492       12.0529235129
  H        43.9594098559       15.3579163225       13.3543537592
  H        42.5408913464       18.7999987462       11.1994043040
  H        44.6687841081       18.8449109778        9.8870454827
  H        44.0161728724       17.3057187708       14.8168421741
  H        20.2945947375       17.9231948352       11.4207107498
  H        46.0452969991       15.3900204517        20.018486320038
  H        43.9166944812       15.3275608550        18.719860808938
  H        42.5243921639       18.7958329848        20.849058197238
  H        44.6588090333       18.8434466887        22.149938738138
  H        44.0075705100       17.2991000270        17.255887241338
  H        46.1987926627       26.6824717172        20.613093020838
  H        52.7410709508       21.0626367368        8.1946933541
  H        14.8801253414       19.6747538183        19.888161727338
  H        17.0806965625       19.7472381134        18.707530318638
  H        18.3321216022       16.2242448880        20.833300887838
  H        16.1336196004       16.1758980135        22.023533712738
  H        16.9424489947       17.7094239514        17.282438838338
  H        52.3222297139       21.6732097651        22.284173400538
  H        52.0132142133       21.7020436033        9.4957530897
  H        49.0674632198       18.6081054628        21.193962991838
  H        13.2472784973       19.0165445161        23.967004082838
  H        29.9412628799       12.4634718830       12.2498916917
  H        28.8693105205       10.5340653648       13.4211602207
  H        25.2497151704       11.1978855127       11.1954391248
  H        26.3402801514       13.1166781713       10.0186772335
  H        27.1502223164       11.6817543282       14.7913832293
  H        31.0033110033       22.7629299233       12.0204064316
  H        32.0124358340       24.6401753359       13.3193337479
  H        35.6956826278       24.1409364333       11.1550274643
  H        34.6659662019       22.2703684464        9.8504864573
  H        33.6838760660       23.5718854161       14.7581341447
  H        25.7008779488        8.5965616805       11.4053324630
  H        30.9351799425       22.7363559355        19.941986148338
  H        31.9609365014       24.5973712745        18.641858955338
  H        35.6262581049       24.1000117407        20.837225793638
  H        34.5850172389       22.2346024521        22.136930765938
  H        33.6584462781       23.5554490140        17.195399716738
  H        40.6017652633       17.0933424073        20.640694496038
  H        32.5038459585       14.1465330493        8.2533312076
  H        29.8716140032       12.5734458000        19.854448669338
  H        28.8451930151       10.6713735224        18.610788700638
  H        25.2263275669       11.1410903102        20.889232639838
  H        26.2791227607       13.0251569421        22.150479508338
  H        27.1488046552       11.6966880265        17.229185409938
  H        33.3064612563       14.2249947875        22.452765240238
  H        33.4067764104       14.4106105596        9.5961045568
  H        32.1313095148       18.4893092084        21.145706248138
  H        30.1920695336       14.1559451790        8.0793538777
  H        16.1182796418        2.9633565021       12.1296398977
  H        14.9532190838        4.8205108181       13.3224180059
  H        17.3666419056        7.6859053065       11.2103562833
  H        18.5152386534        5.8182016550       10.0105035476
  H        16.7539036969        5.7398003803       14.7715147169
  H        44.8286462021       32.1401922000       11.9765534110
  H        45.9379374333       30.3412847352       13.3059857896
  H        43.6817256782       27.3781939468       11.1530753723
  H        42.5990190724       29.1900527541        9.8105094737
  H        44.2304792082       29.4366902759       14.7687898363
  H        14.8510921392        8.5460538369       11.3633111693
  H        44.9003800784       32.2339365238        19.922071607138
  H        46.0252222740       30.4128590154        18.642528425138
  H        43.7624281205       27.4840512702        20.834240757538
  H        42.6447084276       29.3177435509        22.113303890738
  H        44.2685404868       29.4704384706        17.207903573238
  H        35.0840213431       26.6164868821        20.622248896338
  H        36.6050263074       35.1338865006        8.1806802607
  H        16.1435719040        3.0130113868        19.893934659538
  H        14.9740670969        4.8564197836        18.678149249338
  H        17.3962872773        7.7472467250        20.744851809438
  H        18.5432703134        5.8931917553        21.972512400738
  H        16.7649523256        5.7557317462        17.209117532438
  H        36.2785516144       34.4822209142        22.263154480438
  H        36.3808279538       34.2091549400        9.4999043366
  H        40.5798694675       33.2020827892        21.143507484538
  H        17.4706429962        1.9468949816        23.963876032338
  H        29.1482279390       19.3257835013       12.4955478564
  H        28.8481146397       18.7239312268        19.743803214238
  H        32.1884544924       16.0631824204        19.634853139738
  H        31.4575782926       15.6543272190       12.5712996668
  H        27.9504528419       17.6703806868       14.2558682639
  H        29.3105854923       15.4160358972       14.3887920121
  H        31.3196325653       20.2994010964        18.887767593338
  H        32.4568719940       17.6090006059        17.186375803038
  H        30.3213974443       15.1825526287        18.505158445238
  H        18.8526105086        0.8686707472       12.3352381217
  H        40.5280602123       35.2291262580        19.941947232538
  H        42.3236867992       34.4186589473        19.580515785838
  H        22.0875519601        0.6918671239       12.3516043890
  H        11.5969499814       18.7128960303       12.3824406722
  H        52.2647354047       18.4312123633        19.667110312638
  H        49.2551240849       16.4771258063        19.574429052538
  H        10.1503202592       15.7981664268       12.2926656237
  H        50.8499251345       17.6924056703        19.944107877738
  H        10.0460670295       17.3945144749       12.0519666288
  H        20.2136118804        0.0018527524       12.0421451947
  H        39.1836961540       36.1243732383        19.676146185438
 Ni        30.7717159595       17.7202477817        18.738746966538
 Ni        30.7790527211       16.3985396380        16.071880091638
 Ni        29.5467552936       18.2876176152       15.918174639838
 Ni        30.0509269174       17.3597486727       13.1569736597
  O        10.6499026803       14.3651341048        21.475639076938
  O        12.6131613686       14.6575517018        22.573704468838
  O        49.1478133426       16.8459934020        23.979603089338
  O        50.3501358578       20.9359416340        21.638028084738
  O        48.3484918465       20.5932541566        22.655802626738
  O        11.0515209706       17.0539569217        22.490455013438
  O        50.3210593068       20.8816202822       10.4067949853
  O        48.3467559071       20.5867111969        9.3271351971
  O        49.5435138191       18.2484078983       10.0682977353
  O        12.3589180218       18.6245901659        7.9997668334
  O        48.6932202330       14.1486159284        22.741088252338
  O         8.2098821932       14.2104357401        9.3225379837
  O        10.7353795628       14.5067791199       10.6643267964
  O        12.5718221702       14.5828710080        9.3284902972
  O        22.8446100214        2.0432377792        21.476915293538
  O        21.6054398831        3.5922493857        22.579468436638
  O        42.0580936485       34.1372741170        23.968779680238
  O        37.9816882813       33.1376133825        21.562449406638
  O        39.2183326958       31.5762270801        22.656588435138
  O        20.3082882799        1.0393510919        22.491769582638
  O        38.0245699610       33.1855660398       10.4151621910
  O        39.2190792285       31.5836782221        9.3265298990
  O        40.6522324471       33.7692300708       10.0602450959
  O        18.2554713091        1.3759323407        7.9967605366
  O        44.6222243702       35.1005274618        22.748557707038
  O        24.2053480362        0.0000305735        9.3208340681
  O        22.7529301150        2.0580070953       10.5839109672
  O        21.6241806976        3.5958745039        9.3421507773
  O        27.4993658817       18.7499207619        21.478545015838
  O        26.7614317444       16.9383775895        22.642450512638
  O        30.6634479107       19.4084291636        8.0134047836
  O        33.5803827257       16.2744718643        21.650257800738
  O        34.2758109243       18.1609378455        22.722911129938
  O        29.5743348027       17.0509407403        22.567353677838
  O        33.5541099276       16.3379976881       10.4121018662
  O        34.2995900783       18.2379611590        9.4044379719
  O        31.6543213240       18.3171848163       10.0934606648
  O        30.2982868235       15.1208100493        8.0858132601
  O        28.5566817665       21.0339116705        22.821087209538
  O        28.5149740867       20.9555205889        9.4028151303
  O        27.4618507579       18.6796571074       10.6583378057
  O        26.6949859104       16.9294305017        9.4124361805
  O        13.1493025622       18.6928665726       10.5876325846
  O        13.9196649487       16.9162019943        9.4051583164
  O        50.5958628319       19.3501741551        8.0206664378
  O        47.6828680258       16.3270142284       10.4171644254
  O        46.9504892637       18.1756146217        9.3254281844
  O        11.0696056859       17.0156577405        9.4896910982
  O        47.6758694591       16.3358602348        21.642670537238
  O        46.9262859505       18.2358332744        22.653693190438
  O        49.5684776941       18.3177187302        21.972143327138
  O        10.3186579723       15.1002417660        7.9971130404
  O        52.6707581471       21.0278817145        9.2418393264
  O        12.1468107964       20.8911503101        22.662997391438
  O        13.1081162411       18.6136573720        21.315361629538
  O        13.9571473892       16.9869542171        22.655254236838
  O        29.9930767048       14.4453916045       10.7347945119
  O        28.0884085895       14.6535333371        9.4977756611
  O        32.0730520324       16.8532685584        8.0696002362
  O        30.9650940692       20.9499590411       10.4050628826
  O        32.9464407120       20.5982231168        9.3339847223
  O        29.5643320578       17.0734096528        9.5738731136
  O        30.9075724195       20.8742534073        21.565953971038
  O        32.8789953529       20.5849563890        22.656505950038
  O        31.6842363936       18.2453171257        21.973678767938
  O        28.2936640995       18.6760574751        8.0680199486
  O        32.4901946553       14.2135280688        9.3290183452
  O        32.4040816734       14.2154611212        22.813672681738
  O        29.9142426624       14.4395942930        21.478447523138
  O        28.0348790583       14.5904024651        22.741342001838
  O        17.8891659574        1.9666113981       10.6628481163
  O        18.9561864550        3.5271390048        9.4079717007
  O        39.1686466941       34.1387602755        7.9971713003
  O        43.2802494636       33.0589280849       10.3317047263
  O        42.0345835954       31.5064106270        9.2416191404
  O        20.3175287676        1.0365966534        9.4803101945
  O        43.2761013555       33.1825421498        21.564678446638
  O        42.0052997146       31.5840630985        22.572772286238
  O        40.5789960827       33.7748642001        21.925562259738
  O        22.3672733131        1.3845650943        7.9979333025
  O        36.6727216183       35.0997428663        9.2333110211
  O        16.4454699797        0.0642094048        22.658056062538
  O        17.9364412487        2.0433838633        21.316146317238
  O        18.9190039123        3.5931482176        22.655720050838
  O        29.7743031166       18.7490875759        20.047847142138
  O        29.8693309224       18.8927233875       11.9974200975
  O        31.3074667844       16.2800597712        19.994256586438
  O        31.3435461609       16.4832145305       12.0688525862
  O        31.8921944877       16.8679268913        17.482890809738
  O        29.9163026283       14.8682568515        17.658273601538
  O        30.1606790049       15.8915554104       14.4012238392
  O        31.8189018073       20.0854359710        18.075539962138
  O        28.7375193295       18.2454416003       14.2384384613
  O        39.4568878850       35.2437889539        19.991728171238
  O        19.1405150857        0.0041578343       11.9906368753
  O        41.9696745920       35.1728153955        20.076991078138
  O        21.6911142602       -0.0694637680       11.8958601691
  O        51.3649583122       18.6143289968        19.995290139938
  O        10.7511516760       18.7471357128       11.9049037226
  O        50.0796467073       16.4128605674        20.081561870538
  O         9.5244876243       16.4830581725       11.9911682406
 Zr         9.2965551347       16.0527910919        22.172204779938
 Zr        49.8360993678       16.0068336359        9.7465486629
 Zr        22.0731290046        0.0295309900        22.178952218838
 Zr        42.4607283960       35.1531447027        9.8009478684
 Zr        29.6165575256       19.0739448073        22.242993663638
 Zr        29.5856340750       19.1832545924        9.8416964325
 Zr        11.0376713537       19.0521474632        9.8277629062
 Zr        11.0433726901       19.1549839521        22.241088169238
 Zr        31.3348338050       16.0996929514        9.8743158201
 Zr        31.3720459433       15.9988084962        22.257272844438
 Zr        18.6008732998       -0.0020063497        9.7633122444
 Zr        18.5062539402       -0.0082874827        22.203406411638
 Zr        12.3016134729       16.3235086494        23.980172550238
 Zr        48.6157189963       18.8331071056        8.0104829573
 Zr        20.3149464153        2.4727915201        23.980236585638
 Zr        40.6430474549       32.6865631853        23.968132268938
 Zr        28.3426058807       16.3335246895        8.0855433831
 Zr        32.6251009082       18.8329865070        8.0426890458
  H        28.9897358326       15.1497549777        17.739405536138
  H        31.1115002212       19.8669884860        17.435438360938
  H        29.7716464138       18.3049766844        17.484960269838
