     574
 i =      269, E =     -4778.9171466909
  C        11.8587604226       14.0535237767        21.731409828238
  C        12.4563484926       12.8906250944        21.013043395838
  C        11.7046708391       12.1716822858        20.071392821938
  C        12.2810729233       11.1094862334        19.379052063838
  C        13.6216502182       10.7397318483        19.606781616638
  C        14.3547615164       11.4432476955        20.580322605638
  C        13.7818540265       12.5082174050        21.271828185138
  C        14.2612042300        9.6490629129        18.833408996638
  C        14.2564980230        9.6569616826        17.411704003938
  C        13.7433253388       10.7590910128        16.657808196038
  C        49.1267335366       21.2332010213        21.869476016438
  C        48.5499819098       22.4011865241        21.142400186438
  C        49.3000594378       23.0686282508        20.161528023538
  C        48.7331271932       24.1077690278        19.428334635938
  C        47.4025417241       24.5092672881        19.656866470438
  C        46.6714929743       23.8602320475        20.670185979638
  C        47.2339531357       22.8153234973        21.399522619938
  C        46.7722910334       25.5869467539        18.859572522638
  C        46.7612758213       25.5573602476        17.437813503138
  C        47.2611807373       24.4422393828        16.694344522138
  C        14.8604951822        8.5706600685        16.698430292938
  C        14.8920077838        8.5971252236        19.510055571138
  C        49.1131466566       21.2033100413       10.1455631770
  C        48.5277414910       22.3646373758       10.8728136356
  C        49.2671014855       23.0255432018       11.8654946608
  C        48.6907753841       24.0601495560       12.5968942979
  C        47.3603155145       24.4568046822       12.3587360673
  C        46.6398377873       23.8117888211       11.3353304269
  C        47.2133618843       22.7758200465       10.6036062137
  C        46.7218388728       25.5318008689       13.1497082506
  C        46.7335699750       25.5281835762       14.5714065372
  C        47.2488873112       24.4289228513       15.3277975996
  C        40.6328619293       17.1372964586       15.3249892051
  C        40.6506789432       17.1724863301       12.5162325237
  C        11.8830161559       14.0866038608       10.2855036362
  C        12.4723666808       12.9107986634       10.9897893824
  C        11.7148087463       12.1775239786       11.9158062272
  C        12.2813898870       11.0950708075       12.5842403618
  C        13.6202278105       10.7214044355       12.3524698347
  C        14.3582026633       11.4369206388       11.3916388488
  C        13.7927735317       12.5180894679       10.7189415479
  C        14.2537919907        9.6246053537       13.1228384100
  C        14.2526372721        9.6446160577       14.5446757233
  C        13.7427373281       10.7535390239       15.2917633500
  C        22.5106151260        3.2441901470        21.741034442438
  C        23.2224203651        4.3483712503        21.036838578538
  C        24.2180803543        4.0661222210        20.089865868238
  C        24.8447186420        5.1039227192        19.404874499238
  C        24.4915393089        6.4464110886        19.646554880938
  C        23.5226669148        6.7201315756        20.629284749438
  C        22.8915936371        5.6841592261        21.312960775538
  C        25.1016214748        7.5516227689        18.872400183338
  C        25.0841739003        7.5441614955        17.450555259938
  C        24.3849388518        6.5464155421        16.699639576538
  C        38.3036462718       31.9313217819        21.838769145638
  C        37.5758042190       30.8424879399        21.127714536138
  C        36.6186455109       31.1469759494        20.148021341138
  C        36.0036723991       30.1268200596        19.427992329438
  C        36.3317061506       28.7781505542        19.667171846638
  C        37.2594723744       28.4810917309        20.682992126338
  C        37.8786284056       29.4999243805        21.401621419538
  C        35.7303004601       27.6862966990        18.870738973838
  C        35.7608241762       27.7000221541        17.449695187038
  C        36.4671305359       28.7013179734        16.711430212838
  C        25.7139979012        8.6129195060        16.734647706238
  C        25.6953877685        8.6261003703        19.547057655638
  C        38.3288515683       31.9624766696       10.1554430790
  C        37.6074272372       30.8884683049       10.8960051643
  C        36.6778962599       31.1956590511       11.9012173599
  C        36.0693391847       30.1758667854       12.6301095883
  C        36.3764243380       28.8240004577       12.3769988164
  C        37.2829919062       28.5266951369       11.3412071378
  C        37.8935825889       29.5429739648       10.6135793310
  C        35.7711217414       27.7242559072       13.1618225743
  C        35.7820441618       27.7191953899       14.5836176321
  C        36.4766209504       28.7109663770       15.3449843145
  C        46.1355946440       26.6208461395       15.2815298780
  C        46.0879875383       26.5801992702       12.4736343915
  C        22.4648486951        3.2571037544       10.2571801142
  C        23.1675238181        4.3654063879       10.9750593053
  C        24.1756661163        4.0779556498       11.9093501197
  C        24.8116468206        5.1068355639       12.6006745892
  C        24.4607127592        6.4542527727       12.3815603041
  C        23.4764340457        6.7350499247       11.4147998462
  C        22.8360797940        5.7063668869       10.7235398325
  C        25.0952508134        7.5505150642       13.1578923874
  C        25.0813846690        7.5432320941       14.5809165333
  C        24.3817559669        6.5471392801       15.3329586683
  C        26.6179054715       17.8586207337        21.772679652838
  C        25.3089049340       17.9078485663        21.051678276638
  C        25.0514303741       18.9054532865        20.097771216238
  C        23.8393134794       18.9273060234        19.410322772538
  C        22.8474790968       17.9557133449        19.655408441238
  C        23.1009636546       16.9816325250        20.639795480838
  C        24.3152800815       16.9536863240        21.324251377738
  C        21.5750491054       17.9434666738        18.889657176238
  C        21.5762033906       17.9237582272        17.467045189738
  C        22.7822713130       17.7989234466        16.707732894738
  C        34.4420414389       17.1911752436        21.909111352738
  C        35.7371448492       17.1364301056        21.171480659938
  C        35.9347606870       16.1775543132        20.165874349238
  C        37.1144695659       16.1663881575        19.427585795638
  C        38.1280444925       17.1118890724        19.676850276838
  C        37.9342039197       18.0487619786        20.709745626238
  C        36.7512536260       18.0664701862        21.444369566438
  C        39.3807260747       17.1238054037        18.889217122738
  C        39.3758207432       17.1482044642        17.467773767438
  C        38.1691047525       17.2811919883        16.711448465738
  C        20.3302536697       17.9433897461        16.757196398538
  C        20.3496896467       17.9456202766        19.570822365038
  C        34.4750087357       17.2500119034       10.1827052937
  C        35.7738548428       17.1779072799       10.9109067547
  C        35.9806508381       16.2063700162       11.9013556096
  C        37.1664650644       16.1897480763       12.6296162641
  C        38.1730825623       17.1441474814       12.3869160004
  C        37.9715944785       18.0917394410       11.3659535760
  C        36.7838604973       18.1136452929       10.6406135553
  C        39.4198777431       17.1623154656       13.1814367679
  C        39.3957336922       17.1696620945       14.6024641689
  C        38.1785254109       17.2903093559       15.3447962316
  C        35.1514663493       26.6410807521       15.2889336590
  C        35.1823598607       26.6521212699       12.4800720141
  C        26.5755919720       17.8281410020       10.3255544763
  C        25.2610301922       17.8708316197       11.0347085690
  C        24.9983525605       18.8764744317       11.9772695283
  C        23.7801894582       18.9046574889       12.6506951494
  C        22.7952426796       17.9269895037       12.4051443147
  C        23.0529600007       16.9453767218       11.4311961168
  C        24.2718955864       16.9153137788       10.7560264194
  C        21.5306092124       17.9121064292       13.1767046825
  C        21.5531843030       17.9061189472       14.5982588712
  C        22.7708331330       17.7903253882       15.3415288180
  C        14.0472736984       17.8295987703       10.2884166452
  C        15.3523361568       17.8886663917       11.0128528483
  C        15.6092357452       18.8945500243       11.9576319479
  C        16.8184509604       18.9176122252       12.6501602341
  C        17.8052659547       17.9375428551       12.4204223768
  C        17.5531942638       16.9559617891       11.4432584307
  C        16.3434570612       16.9283933701       10.7521581479
  C        19.0741434159       17.9221001931       13.1902346408
  C        19.0717892391       17.9223159784       14.6128373357
  C        17.8641623073       17.8260894717       15.3734549597
  C        46.8056421482       17.2197615042       10.1597545082
  C        45.5171612084       17.1617436083       10.9075407985
  C        45.3102137533       16.1862088050       11.8950310942
  C        44.1297645478       16.1730021037       12.6332054374
  C        43.1269240746       17.1357401741       12.4059081118
  C        43.3312983839       18.0909517927       11.3919103002
  C        44.5121979415       18.1079218954       10.6546035437
  C        41.8744945980       17.1516878009       13.1949490970
  C        41.8798995576       17.1475747455       14.6167337473
  C        43.0890560507       17.2353271668       15.3757920110
  C        20.3180388779       17.9336126776       15.3222334504
  C        20.2990008276       17.9002157697       12.5091500072
  C        46.7860393414       17.2298297644        21.880840948038
  C        45.4825512218       17.1212799610        21.168336221338
  C        45.2664565129       16.1242659822        20.205156945338
  C        44.0786264455       16.0970297774        19.479074368938
  C        43.0786827873       17.0636174421        19.700201640938
  C        43.2843974353       18.0289158191        20.703366711538
  C        44.4734637572       18.0629614520        21.424083406338
  C        41.8339178628       17.0891408553        18.902586000338
  C        41.8595867012       17.1133280950        17.482112478038
  C        43.0794727391       17.2168694876        16.742173085438
  C        46.1533605683       26.6372989171        16.716074593938
  C        46.1624150684       26.6560967634        19.525708788238
  C        14.0452449147       17.8321953398        21.698724826238
  C        15.3659306113       17.9083090138        21.008043202238
  C        15.6379579411       18.9258639921        20.081384934838
  C        16.8665947516       18.9656424525        19.426121991838
  C        17.8505824049       17.9868769899        19.671627000038
  C        17.5852955160       16.9980716493        20.636465735138
  C        16.3587299101       16.9578733728        21.295380869538
  C        19.1178682108       17.9645830264        18.902819831038
  C        19.0946043221       17.9431019454        17.481227165538
  C        17.8752798664       17.8352703001        16.739503721438
  C        28.8089150114       14.1238565615       10.4013571192
  C        28.2109325434       12.9450008738       11.0941141363
  C        28.9394531737       12.2061943665       12.0378750237
  C        28.3499849389       11.1201515753       12.6816914693
  C        27.0173215088       10.7498352583       12.4083952527
  C        26.3105614832       11.4710842036       11.4292879740
  C        26.8979462563       12.5551660783       10.7826975422
  C        26.3519457356        9.6625415179       13.1641602808
  C        26.3330529789        9.6864095367       14.5853807501
  C        26.8349086813       10.7973999401       15.3352447705
  C        32.1827152799       21.2443591839       10.1359771617
  C        32.7814040678       22.4053846643       10.8596907689
  C        32.0318381122       23.0855602594       11.8318824396
  C        32.6035854252       24.1224002809       12.5629252771
  C        33.9400514662       24.5070929148       12.3415560447
  C        34.6726387113       23.8447684090       11.3386593251
  C        34.1034001938       22.8020824231       10.6099342118
  C        34.5683427729       25.5830472039       13.1412436188
  C        34.5588731967       25.5568116600       14.5627211981
  C        34.0462638331       24.4445457460       15.3025464600
  C        25.7173968772        8.6087309079       15.2998087979
  C        25.7165313175        8.6128477340       12.4864854736
  C        32.1072452781       21.2358043042        21.871980168338
  C        32.6980794695       22.3898826112        21.132980555438
  C        31.9607044607       23.0578887912        20.143053590638
  C        32.5428168512       24.0842584168        19.403242586938
  C        33.8757878023       24.4741741154        19.637521227938
  C        34.5957771248       23.8220114063        20.656718819138
  C        34.0187179337       22.7886803772        21.390331010838
  C        34.5164321661       25.5529691413        18.850924050938
  C        34.5305995006       25.5422321283        17.429233109338
  C        34.0312439989       24.4382014899        16.669139666538
  C        40.6222699034       17.1228233258        16.758963283438
  C        40.6038925894       17.1114551323        19.568284441238
  C        28.7375460020       14.0633422568        21.808776341438
  C        28.1303122461       12.9153099892        21.072683640338
  C        28.8738783258       12.2037729398        20.118585224338
  C        28.2930709681       11.1487989142        19.418867570538
  C        26.9534420893       10.7768917120        19.649915264238
  C        26.2270320414       11.4742153515        20.633345726438
  C        26.8056359023       12.5310695916        21.333615212138
  C        26.3140857191        9.6870148513        18.873636955538
  C        26.3153796695        9.6990637122        17.451809943638
  C        26.8252273608       10.8044355491        16.701009188238
  C        18.1354412481        3.1810769598       10.3171740651
  C        17.4061979318        4.2782938206       11.0157896271
  C        16.3905043800        3.9998935004       11.9433399245
  C        15.7427310732        5.0398512782       12.6068154758
  C        16.0945507236        6.3835953669       12.3670756570
  C        17.0837169260        6.6531564118       11.4030922191
  C        17.7328762972        5.6158397551       10.7380637134
  C        15.4701875603        7.4912524861       13.1301235451
  C        15.4856160520        7.4906061637       14.5518347249
  C        16.1871680085        6.4969862727       15.3050028863
  C        42.9460472347       31.8595815644       10.0728793208
  C        43.6464911601       30.7719441616       10.8167598981
  C        44.5918733188       31.0932773243       11.8029800898
  C        45.1975650390       30.0877294353       12.5506550328
  C        44.8712302968       28.7346430307       12.3357152418
  C        43.9455764577       28.4202993444       11.3223356399
  C        43.3367836947       29.4254390516       10.5742850328
  C        45.4888252153       27.6553566191       13.1389022216
  C        45.4929411383       27.6809966768       14.5605956973
  C        44.8058796547       28.6890734700       15.3072074497
  C        14.8566010305        8.5630675578       15.2642053937
  C        14.8749884384        8.5630732819       12.4515526284
  C        42.9465175913       31.9616311021        21.798761484338
  C        43.6917931283       30.8855325879        21.085358962538
  C        44.6562538657       31.1914462020        20.112919089838
  C        45.2777747735       30.1718631019        19.395194642738
  C        44.9541094124       28.8215216629        19.632911331238
  C        44.0207942920       28.5238542575        20.643856102938
  C        43.3925443130       29.5406155466        21.356038823238
  C        45.5631570270       27.7241321458        18.847666178438
  C        45.5334108609       27.7174601187        17.426368998838
  C        44.8271182433       28.7076947235        16.673392593138
  C        35.1388751498       26.6324510925        16.723432417538
  C        35.1272696398       26.6114368988        19.533083107738
  C        18.1487792994        3.2471229916        21.696448976738
  C        17.4302207924        4.3439595301        20.987183973138
  C        16.4150566373        4.0526749927        20.063554332338
  C        15.7667336519        5.0833025502        19.388184205838
  C        16.1213433025        6.4285464728        19.610951187838
  C        17.1127081215        6.7119359070        20.568225785038
  C        17.7604115366        5.6830337035        21.247981608238
  C        15.4908950095        7.5242301553        18.838455898038
  C        15.4966796964        7.5075340056        17.417316927638
  C        16.1934793571        6.5058582985        16.670610860938
  H        10.6725438207       12.4658148390        19.894368829538
  H        11.6948047560       10.5510272718        18.652483190238
  H        15.3918080820       11.1686914682        20.762032071238
  H        14.3512952750       13.0714563403        22.007269721838
  H        13.3762883888       11.6311973236        17.191134626338
  H        50.3228159906       22.7486754644        19.976908695238
  H        49.3196407411       24.6231144541        18.670839425138
  H        45.6419212675       24.1608263988        20.853185205938
  H        46.6628750924       22.2899147930        22.161449239238
  H        47.6296260635       23.5758426239        17.236059084838
  H        14.8723594279        8.5884039568        20.598363635238
  H        50.2871889241       22.7027571861       12.0603056520
  H        49.2691727218       24.5756655497       13.3603522099
  H        45.6103704268       24.1088905641       11.1463804417
  H        46.6525086104       22.2535348122        9.8321470614
  H        47.6076129056       23.5517822329       14.7969046897
  H        40.6562486561       17.1405308505       11.4284058928
  H        48.6870689275       14.0948651010        23.789773806138
  H        10.6813301052       12.4665938348       12.0931746303
  H        11.6895875276       10.5246730294       13.2969234791
  H        15.3936671401       11.1591008880       11.2057846595
  H        14.3651307280       13.0875131139        9.9904652568
  H        13.3758879752       11.6221321110       14.7531139295
  H        47.9301347200       14.2182842412        9.7108724847
  H        47.7801525424       14.3737428006        22.485004882138
  H        49.0838637305       18.5524709723       10.8675439196
  H        10.4160582306       14.1343200507        7.9986797659
  H        24.4790828199        3.0271053323        19.901525310638
  H        25.6179597647        4.8846240170        18.671784303638
  H        23.2420751452        7.7535404001        20.822039914138
  H        22.1220627653        5.8863666601        22.053974298838
  H        23.8192875498        5.7902774983        17.236273074938
  H        36.3818863630       32.1903022590        19.953330943438
  H        35.2606057596       30.3651441427        18.670167421938
  H        37.5195400555       27.4419285576        20.873532948138
  H        38.6208987819       29.2798530248        22.165168267938
  H        37.0328894491       29.4511516280        17.256699937938
  H        25.7222644101        8.6095393714        20.635116273338
  H        36.4536696051       32.2395038630       12.1089063446
  H        35.3432359644       30.4190285599       13.4026842309
  H        37.5315295439       27.4868958113       11.1392766017
  H        38.6164989879       29.3190485526        9.8329713295
  H        37.0507249795       29.4678104337       14.8182755723
  H        46.1094363176       26.5875540832       11.3855984736
  H        44.6682500110       35.1161454121        23.803761670438
  H        24.4513637653        3.0391151348       12.0763460298
  H        25.5955836909        4.8750343099       13.3185733324
  H        23.1926987431        7.7700887951       11.2351960629
  H        22.0605264649        5.9223132900        9.9922396238
  H        23.8130517632        5.7920866314       14.7979965535
  H        44.9536666475       34.3902902915        9.6951421464
  H        44.9015487523       34.2067743209        22.480396995738
  H        40.6660691073       33.2092236142       10.8531977708
  H        23.1507483252        1.9579311919        8.0047599529
  H        25.8125877625       19.6603188480        19.912719368138
  H        23.6447751521       19.7071311446        18.677051057938
  H        22.3470056291       16.2225480383        20.838302414938
  H        24.5216103014       16.1874803731        22.068019557538
  H        23.7222783776       17.6775075762        17.238199159738
  H        35.1451712051       15.4553330271        19.972155914838
  H        37.2670291996       15.4171392799        18.653892937938
  H        38.7100125389       18.7858857589        20.906214070838
  H        36.5833329744       18.8054501005        22.224415219238
  H        37.2298742080       17.4068477635        17.242661126138
  H        20.3552877085       17.9838906019        20.658758368438
  H        35.1944270526       15.4812925000       12.0971196154
  H        37.3264430609       15.4332806491       13.3946244515
  H        38.7430006622       18.8348935436       11.1750107877
  H        36.6059743747       18.8618679924        9.8718386266
  H        37.2459221816       17.4216786248       14.8033686240
  H        35.1545877125       26.6765069045       11.3923486158
  H        28.4949197586       21.0849673686        23.869493042038
  H        25.7618294266       19.6290231941       12.1617715723
  H        23.5756424140       19.6896268681       13.3756169226
  H        22.3010115379       16.1834686922       11.2360536208
  H        24.4863610328       16.1464724857       10.0175297257
  H        23.7021974152       17.6630171861       14.7979237778
  H        28.9965980674       21.7306549049        9.7425959325
  H        29.1933553692       21.7218908383        22.558447201138
  H        32.0979084803       18.6262720971       10.8913566084
  H        27.3934994243       19.0676757546        8.0752652020
  H        14.8507181744       19.6539452890       12.1340187228
  H        17.0135764765       19.7040205754       13.3761309414
  H        18.3044340399       16.1912652509       11.2565599245
  H        16.1376770156       16.1571808706       10.0136422113
  H        16.9218220307       17.7115559832       14.8456606902
  H        46.0913528223       15.4518219781       12.0769897645
  H        43.9692755901       15.4085171790       13.3902216008
  H        42.5650000244       18.8422003086       11.2124313634
  H        44.6866758553       18.8596973977        9.8884690522
  H        44.0310220543       17.3492861649       14.8469396016
  H        20.2939098476       17.9273556259       11.4209361331
  H        46.0452540240       15.3863696321        20.026702437238
  H        43.9129384840       15.3244905098        18.731344865938
  H        42.5159431682       18.7785733924        20.879990919438
  H        44.6552766187       18.8276821313        22.175170470138
  H        44.0141320805       17.3155233261        17.286597639938
  H        46.1992812529       26.6826331793        20.613153212938
  H        52.7410991406       21.0625615590        8.1946544530
  H        14.8767000846       19.6793450708        19.891627249138
  H        17.0769266456       19.7578613402        18.710815923938
  H        18.3365764296       16.2360769094        20.833548403638
  H        16.1384936023       16.1817794612        22.024345582738
  H        16.9412929045       17.7277640383        17.282802740338
  H        52.3222099968       21.6732502802        22.284228615838
  H        52.0130001803       21.7018637823        9.4956384264
  H        49.0673223986       18.6076127810        21.194098091638
  H        13.2475476696       19.0164028383        23.967152397538
  H        29.9656340531       12.4957339057       12.2528323458
  H        28.9179013837       10.5460778991       13.4106563681
  H        25.2805603843       11.1969934518       11.2105077295
  H        26.3492884873       13.1308369845       10.0414178569
  H        27.2030061137       11.6660085106       14.7977432879
  H        31.0044403067       22.7763383905       12.0083043558
  H        32.0174729483       24.6499171639       13.3123153821
  H        35.7070940419       24.1328999354       11.1629999211
  H        34.6737222985       22.2652147865        9.8553277283
  H        33.6874397201       23.5766477406       14.7568022051
  H        25.7496737796        8.5961561512       11.3984750026
  H        30.9326790868       22.7546994618        19.959119031238
  H        31.9648865139       24.6021986605        18.640907784438
  H        35.6274801181       24.1131914183        20.842965766338
  H        34.5800593663       22.2611730310        22.158047158338
  H        33.6611383256       23.5652362779        17.199262934338
  H        40.5972296170       17.0655851017        20.655609758738
  H        32.5159545973       14.1478323751        8.2405156302
  H        29.9095556005       12.4870975007        19.945119731138
  H        28.8767176821       10.5939543347        18.687447951538
  H        25.1906107993       11.1995284747        20.818646086638
  H        26.2413393480       13.0859067477        22.079511029238
  H        27.1842792989       11.6784325174        17.236687358538
  H        33.2998764427       14.1975866418        22.436013854838
  H        33.4077871953       14.3926465447        9.6058762589
  H        32.1140669420       18.5346524309        21.153843852538
  H        30.2300193920       14.1925607338        8.0738630074
  H        16.1185238619        2.9633785170       12.1298073347
  H        14.9533396076        4.8204536569       13.3225347803
  H        17.3659954432        7.6860495209       11.2098412902
  H        18.5148061092        5.8185348217       10.0101054314
  H        16.7537487278        5.7396621571       14.7715086198
  H        44.8280686930       32.1403631899       11.9772658867
  H        45.9373599097       30.3414864312       13.3066736223
  H        43.6830151938       27.3782127583       11.1521053115
  H        42.6003079216       29.1900776180        9.8094969988
  H        44.2305487069       29.4368530667       14.7688961854
  H        14.8511634298        8.5463104055       11.3633363255
  H        44.8997294213       32.2341289839        19.921390678038
  H        46.0245753512       30.4131017884        18.641853303838
  H        43.7639636661       27.4841097484        20.835521710238
  H        42.6462141598       29.3177869397        22.114634737338
  H        44.2686205149       29.4706057750        17.207950024038
  H        35.0860779327       26.6249305937        20.620567324038
  H        36.6051441667       35.1341848839        8.1804941571
  H        16.1439148710        3.0131034759        19.893897552238
  H        14.9744026821        4.8564613697        18.678105487938
  H        17.3961740366        7.7474106302        20.745150876038
  H        18.5432027489        5.8935150601        21.972832998738
  H        16.7649453969        5.7556280776        17.209032482038
  H        36.2786911810       34.4827308636        22.262956223138
  H        36.3807684369       34.2092756021        9.4995868693
  H        40.5808899011       33.2031314683        21.143261231338
  H        17.4709917641        1.9478295273        23.964157386038
  H        29.1885729601       19.5277776834       12.4279446999
  H        29.9201989533       19.8253928108        19.600934617538
  H        30.6066137077       15.5466315961        19.829149027438
  H        31.0874529573       15.6306645215       12.4124389731
  H        28.0308167511       17.9471344444       14.3501635342
  H        29.2571550855       15.7527747273       14.5337229511
  H        31.4254401680       19.7003503418        17.156414906138
  H        32.3509315465       16.1171462628        17.634731449338
  H        28.4330870487       17.7818217946        18.998560163838
  H        32.7594318408       18.3147221851       14.1308306371
  H        18.8530026265        0.8688819301       12.3352060960
  H        40.5279370157       35.2290124991        19.941761938738
  H        42.3244596603       34.4191525231        19.580178529138
  H        22.0876443114        0.6916985308       12.3520025075
  H        11.5969162859       18.7130439385       12.3825241225
  H        52.2648699857       18.4311131886        19.667111215438
  H        49.2553106449       16.4770757141        19.574351057138
  H        10.1505036391       15.7981820377       12.2926297085
  H        50.8499907396       17.6923609471        19.944046969438
  H        10.0462052526       17.3944755661       12.0519929982
  H        20.2140651366        0.0020394756       12.0421203698
  H        39.1836908567       36.1244555092        19.676047111638
 Ni        30.7778080188       17.7234925855        18.656118359938
 Ni        31.2402356712       16.8174786382       15.493784634438
 Ni        29.8490232352       18.7835331045       15.661425924238
 Ni        29.9716596815       17.4950064240       12.9917742675
  O        10.6500022827       14.3650573892        21.475618846638
  O        12.6132717717       14.6575193243        22.573658930138
  O        49.1481195539       16.8459006817        23.979574924138
  O        50.3502237594       20.9360328925        21.637947119438
  O        48.3485211430       20.5933160603        22.655714131538
  O        11.0517390314       17.0538776291        22.490528772538
  O        50.3210569754       20.8817485269       10.4067888123
  O        48.3468776100       20.5868493087        9.3270356313
  O        49.5436028899       18.2484119218       10.0683099970
  O        12.3591280110       18.6245190355        7.9997349046
  O        48.6933022567       14.1484694817        22.741099279838
  O         8.2098708792       14.2103270503        9.3226007590
  O        10.7353782957       14.5066872398       10.6642464912
  O        12.5718506524       14.5827870043        9.3284484488
  O        22.8444238540        2.0429313346        21.476900198138
  O        21.6058177271        3.5925119950        22.579236783638
  O        42.0582992825       34.1376212392        23.968982213238
  O        37.9819123455       33.1394029986        21.562609885338
  O        39.2182696351       31.5766977428        22.656713974338
  O        20.3085938840        1.0400747410        22.492087566738
  O        38.0248132523       33.1860017284       10.4150807569
  O        39.2194870539       31.5840475699        9.3260778949
  O        40.6523668838       33.7695086734       10.0603030236
  O        18.2555335822        1.3764623277        7.9968624881
  O        44.6221980137       35.1005693066        22.748574155138
  O        24.2053981360        0.0000366883        9.3208186358
  O        22.7534279575        2.0582900378       10.5842981267
  O        21.6256896474        3.5972902301        9.3446185063
  O        27.4973040253       18.7440398436        21.476325078938
  O        26.7624757675       16.9331434467        22.643408772538
  O        30.6669866539       19.4120557038        8.0025557159
  O        33.5856746105       16.2774026176        21.653440044138
  O        34.2779354738       18.1674417051        22.722681174038
  O        29.5744882690       17.0647633822        22.562476154838
  O        33.6137095419       16.3316726697       10.4131687901
  O        34.3058262577       18.2467465511        9.4041498954
  O        31.6596851800       18.3222670204       10.0810281602
  O        30.3244136894       15.1591942346        8.0775848274
  O        28.5530308368       21.0341743246        22.819995424738
  O        28.5108267692       20.9615248849        9.3997028490
  O        27.4602431673       18.6794302945       10.6573159676
  O        26.6946916668       16.9288367025        9.4121248357
  O        13.1488809940       18.6930130316       10.5874231743
  O        13.9196998495       16.9163237381        9.4053456039
  O        50.5962290071       19.3502445019        8.0205972572
  O        47.6832986543       16.3271213618       10.4173349679
  O        46.9520968230       18.1759442486        9.3244964647
  O        11.0698019747       17.0154814719        9.4896590321
  O        47.6771886680       16.3353344165        21.643353099938
  O        46.9278976090       18.2355823312        22.654665914838
  O        49.5688721437       18.3177298369        21.972101979738
  O        10.3186459705       15.1001553435        7.9970418474
  O        52.6708736739       21.0280147999        9.2418267613
  O        12.1468252503       20.8912125354        22.663023989738
  O        13.1077391985       18.6138265379        21.315482949438
  O        13.9574122664       16.9871581507        22.655056162938
  O        29.9822412877       14.5101032666       10.7389932207
  O        28.0873551152       14.6563353613        9.4905263258
  O        32.1407076892       16.8570100244        8.0626084148
  O        30.9684673330       20.9589556225       10.3975634070
  O        32.9499988310       20.6006747271        9.3332717687
  O        29.5673190279       17.0785232521        9.5693321271
  O        30.8777179813       20.9528198511        21.649206366638
  O        32.8805782683       20.5888557132        22.652176420238
  O        31.6896396113       18.2477100857        21.978094778238
  O        28.2817060383       18.6760094946        8.0628125287
  O        32.4912274823       14.2135969081        9.3257268803
  O        32.4053901178       14.2132092253        22.815379750938
  O        29.9137563199       14.4365473473        21.474762774338
  O        28.0391788360       14.5871493627        22.741781896438
  O        17.8893299558        1.9666857168       10.6627691817
  O        18.9563177991        3.5271777412        9.4079632469
  O        39.1687378900       34.1389877676        7.9972440168
  O        43.2802184440       33.0590556713       10.3317001280
  O        42.0345956995       31.5064901115        9.2416652562
  O        20.3178248328        1.0369448188        9.4801981530
  O        43.2760740823       33.1826436122        21.564715935738
  O        42.0053104141       31.5841464059        22.572801729438
  O        40.5791212011       33.7751976341        21.925817019338
  O        22.3674511007        1.3849132465        7.9981372881
  O        36.6727683403       35.0998411931        9.2332284150
  O        16.4455716132        0.0645254700        22.658176331438
  O        17.9365593808        2.0434887346        21.316210293638
  O        18.9191913529        3.5931338318        22.655838171738
  O        29.9063859339       18.9699821046        20.064843539938
  O        29.8715462472       19.0471456746       11.9199516807
  O        31.2171466741       16.2681927276        20.071045927638
  O        31.3412264594       16.4856916094       12.0011936279
  O        31.9349935822       16.9291984114        17.297443764638
  O        28.7681820870       17.1488525833        18.321552221038
  O        30.1237218211       15.9807356415       14.1560341051
  O        32.7831309429       17.3418790289       14.1507800279
  O        30.5382303315       19.3303894516        17.311795725438
  O        28.8310409551       18.4672920766       14.1543431669
  O        39.4567700235       35.2438781144        19.991779199138
  O        19.1408711658        0.0043584606       11.9905655159
  O        41.9695869714       35.1726698251        20.076996068438
  O        21.6911600853       -0.0694759009       11.8959941235
  O        51.3650603376       18.6142715169        19.995220637738
  O        10.7511396556       18.7471760565       11.9049467345
  O        50.0797999677       16.4127651843        20.081501100138
  O         9.5246047259       16.4830324907       11.9911765169
 Zr         9.2970206302       16.0526739795        22.172291182438
 Zr        49.8362185355       16.0066447290        9.7463885237
 Zr        22.0733124234        0.0300769935        22.178920022038
 Zr        42.4610811651       35.1538414691        9.8013276106
 Zr        29.6131674606       19.0793255501        22.225560513238
 Zr        29.5805966240       19.1941700804        9.7989829027
 Zr        11.0381042837       19.0519136326        9.8277549108
 Zr        11.0438608378       19.1548342553        22.240858962738
 Zr        31.3658579199       16.1178358598        9.8253691595
 Zr        31.3946289825       16.0105776305        22.238807884638
 Zr        18.6012109318       -0.0010758597        9.7631165759
 Zr        18.5066777234       -0.0069329790        22.203753425138
 Zr        12.3021538800       16.3235567186        23.980178555638
 Zr        48.6165946795       18.8330187667        8.0102860489
 Zr        20.3158832049        2.4741228076        23.980974731738
 Zr        40.6439605315       32.6874688283        23.968142605538
 Zr        28.3442513226       16.3476887885        8.0833387092
 Zr        32.6362789139       18.8444757598        8.0331267357
  H        32.4235200568       17.0572465116       13.2522786382
  H        28.6511793796       17.6037729969        17.450065491838
