     569
 i =      207, E =     -4729.5383848495
  C        11.8586114508       14.0534614355        21.731194861938
  C        12.4561595248       12.8906650270        21.012665788538
  C        11.7047190157       12.1722443619        20.070419186738
  C        12.2811041473       11.1100924373        19.377977724838
  C        13.6214749615       10.7397737940        19.606151524038
  C        14.3543847941       11.4428723543        20.580183303638
  C        13.7814762360       12.5077716259        21.271798973138
  C        14.2609249443        9.6489753486        18.832854149238
  C        14.2560556720        9.6565962300        17.411135438638
  C        13.7430379406       10.7586401987        16.657011100938
  C        49.1264610200       21.2334291520        21.869601601338
  C        48.5495421109       22.4011666850        21.142422665438
  C        49.2995413078       23.0684124443        20.161346024038
  C        48.7325589319       24.1074305625        19.428042570138
  C        47.4020077491       24.5090405143        19.656655034038
  C        46.6710584932       23.8602025090        20.670198808938
  C        47.2335588803       22.8153974793        21.399653632938
  C        46.7718265733       25.5867585933        18.859389889038
  C        46.7609227596       25.5572563179        17.437629029238
  C        47.2608788120       24.4422210330        16.694060927938
  C        14.8596692224        8.5699737242        16.698003964038
  C        14.8916365794        8.5970452009        19.509639460838
  C        49.1129496424       21.2035694517       10.1453188878
  C        48.5275769621       22.3650138766       10.8723120762
  C        49.2667897123       23.0258305193       11.8651847651
  C        48.6904283018       24.0603974104       12.5966012706
  C        47.3599877374       24.4571187770       12.3583820230
  C        46.6396128637       23.8121495903       11.3348674337
  C        47.2131956544       22.7762246492       10.6031179075
  C        46.7214795169       25.5320210159       13.1494760495
  C        46.7332389276       25.5282982185       14.5711874347
  C        47.2486763762       24.4290378574       15.3275065721
  C        40.6192437610       17.0846675152       15.3063168886
  C        40.6263526552       17.1013790416       12.4964929634
  C        11.8826799971       14.0861706896       10.2854489812
  C        12.4715310351       12.9098425916       10.9892615558
  C        11.7139781912       12.1770516705       11.9156891981
  C        12.2801964267       11.0942728229       12.5839190948
  C        13.6187188613       10.7197017492       12.3516445638
  C        14.3566243718       11.4347224721       11.3903599139
  C        13.7915736194       12.5162295596       10.7178628086
  C        14.2521467753        9.6228714551       13.1221753396
  C        14.2514116720        9.6433667624       14.5440351417
  C        13.7421100554       10.7526873291       15.2909517949
  C        22.5121044958        3.2439915360        21.742061189538
  C        23.2284979995        4.3468076041        21.040624340538
  C        24.2240105165        4.0617001665        20.094312140438
  C        24.8546810009        5.0976562021        19.410401030838
  C        24.5055700492        6.4410578268        19.652501704538
  C        23.5377136233        6.7176738790        20.635384834038
  C        22.9023962981        5.6834507785        21.317893867338
  C        25.1167096043        7.5443031956        18.876526995238
  C        25.0919457585        7.5370709989        17.454961107038
  C        24.3872063865        6.5403751017        16.707960075338
  C        38.2970098510       31.9275392423        21.841557674238
  C        37.5539159839       30.8390895013        21.140810509338
  C        36.5883759798       31.1467030523        20.169541257538
  C        35.9562589105       30.1295008069        19.459169055438
  C        36.2736918912       28.7774258559        19.696021089238
  C        37.2082516380       28.4773259753        20.705381036538
  C        37.8444261955       29.4935203495        21.415236651838
  C        35.6635490489       27.6893938837        18.895697264138
  C        35.7077521521       27.7036528880        17.473807127138
  C        36.4204995525       28.7052087459        16.741613922438
  C        25.7194154498        8.6052491482        16.736123540538
  C        25.7158743193        8.6174131481        19.547895148638
  C        38.3309565645       31.9608115932       10.1611999123
  C        37.6150787036       30.8873434369       10.9102768583
  C        36.6814134923       31.1957610475       11.9117808553
  C        36.0727635122       30.1780363554       12.6443651934
  C        36.3827786062       28.8248415834       12.4003066869
  C        37.2973455900       28.5263503629       11.3713763679
  C        37.9075818208       29.5405380592       10.6396772443
  C        35.7691652530       27.7256523408       13.1820029458
  C        35.7613258475       27.7225780622       14.6047469865
  C        36.4444517154       28.7154884109       15.3751281489
  C        46.1351951195       26.6208678840       15.2814051222
  C        46.0873847006       26.5803591448       12.4735073047
  C        22.4621952657        3.2552148695       10.2566551115
  C        23.1601103450        4.3625426566       10.9778791079
  C        24.1660513337        4.0738824430       11.9138232853
  C        24.7985883010        5.1021893113       12.6081858589
  C        24.4453861522        6.4487522481       12.3892737109
  C        23.4625789923        6.7307945417       11.4216502886
  C        22.8254532640        5.7026656424       10.7275784441
  C        25.0802762442        7.5443314356       13.1635956470
  C        25.0737561572        7.5366106346       14.5862817678
  C        24.3766308667        6.5412248620       15.3413498657
  C        26.5697907113       17.8181847378        21.741027596338
  C        25.2631199839       17.8719121589        21.022927994238
  C        25.0016010432       18.8808415193        20.083099321938
  C        23.7885464372       18.9055615103        19.399892821238
  C        22.8059829989       17.9234407422        19.635032810438
  C        23.0623039296       16.9381819420        20.606238676638
  C        24.2762283887       16.9096125255        21.289220295438
  C        21.5391408881       17.9118216169        18.866133489138
  C        21.5498329674       17.9019537649        17.444763476238
  C        22.7611620254       17.7821217167        16.692903527438
  C        34.4399310758       17.1900974762        21.909091395538
  C        35.7334213851       17.1427904857        21.164439397738
  C        35.9449848705       16.1639908070        20.180501644538
  C        37.1241933152       16.1509142511        19.441019446738
  C        38.1264372835       17.1146940686        19.666086895538
  C        37.9186246622       18.0739420306        20.675399286338
  C        36.7356791977       18.0929319170        21.411625838338
  C        39.3792658866       17.1198436452        18.876203200538
  C        39.3700299459       17.1186973486        17.454262549138
  C        38.1599887371       17.2312331851        16.699771054138
  C        20.3082018116       17.9281545888        16.730066250238
  C        20.3126735026       17.9078913557        19.542459963138
  C        34.4342337653       17.2386189447       10.1852977175
  C        35.7340374774       17.1419572761       10.9128562663
  C        35.9409894840       16.1580943447       11.8910679880
  C        37.1324316113       16.1246519070       12.6119614226
  C        38.1456531663       17.0742977549       12.3751076348
  C        37.9441179060       18.0323488826       11.3639541338
  C        36.7523654825       18.0702667447       10.6459971725
  C        39.3969701256       17.0869029169       13.1657640242
  C        39.3792364622       17.1023029109       14.5872066872
  C        38.1642287217       17.2221648460       15.3331885077
  C        35.1235343852       26.6443892764       15.3042946171
  C        35.1882911507       26.6517939177       12.4943279834
  C        26.5763594984       17.8289293933       10.3230511664
  C        25.2624855878       17.8771926877       11.0302532511
  C        24.9940388739       18.8919933837       11.9610448643
  C        23.7753061332       18.9205425269       12.6332788074
  C        22.7961246018       17.9360964723       12.3938129386
  C        23.0588359177       16.9460312948       11.4303503306
  C        24.2789776591       16.9141057184       10.7586971802
  C        21.5286044622       17.9225035672       13.1590197854
  C        21.5438677482       17.9070115057       14.5796136245
  C        22.7579809298       17.7845197637       15.3270026764
  C        14.0461957362       17.8330030267       10.2821715734
  C        15.3547476035       17.8997766234       10.9953132159
  C        15.6163416710       18.9155719667       11.9274406493
  C        16.8284804543       18.9427656589       12.6133311583
  C        17.8095778100       17.9567948042       12.3877429310
  C        17.5545616536       16.9673677992       11.4202047423
  C        16.3420615432       16.9359051585       10.7355691439
  C        19.0746958375       17.9383264150       13.1597898190
  C        19.0629843331       17.9281608618       14.5811880849
  C        17.8498848661       17.8294421966       15.3328993632
  C        46.8016215614       17.2156887889       10.1560370071
  C        45.5069078368       17.1444437333       10.8943963953
  C        45.3000985063       16.1592216057       11.8725259063
  C        44.1153324323       16.1311254550       12.6036411162
  C        43.1060947774       17.0880261069       12.3796411255
  C        43.3090630587       18.0514343752       11.3728797089
  C        44.4948252707       18.0834473778       10.6424994408
  C        41.8532280949       17.0927162737       13.1706166458
  C        41.8635933056       17.0964752839       14.5929169358
  C        43.0748458472       17.1958754446       15.3474937255
  C        20.3047787975       17.9305856392       15.2964671969
  C        20.3016778021       17.9176285205       12.4842512538
  C        46.7854856034       17.2330007582        21.875461760738
  C        45.4850917381       17.1304484966        21.153442723538
  C        45.2675618649       16.1313020384        20.192403460538
  C        44.0810687951       16.1043788376        19.463378973038
  C        43.0819462682       17.0739778305        19.677263310038
  C        43.2910570074       18.0447537758        20.674797250538
  C        44.4783340748       18.0775843365        21.399530142038
  C        41.8338808082       17.0919384725        18.882333247638
  C        41.8539155970       17.0948130198        17.460891950138
  C        43.0703995657       17.1920452907        16.714342383538
  C        46.1529641428       26.6372100356        16.715954309438
  C        46.1619156786       26.6558531283        19.525591956638
  C        14.0385200378       17.8260225962        21.694491000738
  C        15.3502899404       17.8896554038        20.990069221238
  C        15.6207584220       18.9096145798        20.066122096638
  C        16.8433039274       18.9423097080        19.400532552838
  C        17.8194076862       17.9538359845        19.634949781938
  C        17.5542220203       16.9590531438        20.593016509138
  C        16.3339336588       16.9261029821        21.262441410238
  C        19.0855737561       17.9328738043        18.868003358938
  C        19.0688594688       17.9240054825        17.447060571138
  C        17.8528406615       17.8269697829        16.698901561738
  C        28.8073709261       14.0813302639       10.3658573546
  C        28.2044577052       12.9083185238       11.0610718712
  C        28.9353929996       12.1676559257       12.0015676603
  C        28.3407098683       11.0938192109       12.6599503485
  C        27.0024172507       10.7354518006       12.3997275551
  C        26.2934432790       11.4565029295       11.4221409799
  C        26.8846936081       12.5315609640       10.7641855452
  C        26.3371503785        9.6541854139       13.1624827469
  C        26.3272479426        9.6782463831       14.5834600561
  C        26.8342964373       10.7889305854       15.3298962974
  C        32.1808971516       21.2361312854       10.1429982565
  C        32.7804869405       22.3967449683       10.8689409624
  C        32.0275520334       23.0912196166       11.8285710129
  C        32.5992829699       24.1301660991       12.5571216818
  C        33.9404692898       24.5055655441       12.3469389222
  C        34.6771269454       23.8297033413       11.3559601291
  C        34.1076037835       22.7845007368       10.6300072765
  C        34.5660129206       25.5831421172       13.1492417128
  C        34.5419838864       25.5584890160       14.5710242854
  C        34.0277405789       24.4435197431       15.3051406418
  C        25.7146163751        8.6013629801       15.3015142749
  C        25.6972586427        8.6058611748       12.4882919378
  C        32.0862593588       21.1637297006        21.826727415338
  C        32.6482198314       22.3371558639        21.093370936838
  C        31.9202731061       22.9768746479        20.078324207238
  C        32.4877034929       24.0295424079        19.361980443038
  C        33.7984823632       24.4694394166        19.636384885338
  C        34.5055934117       23.8435242816        20.681305347238
  C        33.9421314978       22.7909221834        21.396761260838
  C        34.4400698112       25.5575607308        18.860774350938
  C        34.4773037539       25.5451841451        17.438416428138
  C        33.9968690454       24.4372004654        16.671385452738
  C        40.6140673666       17.0885165896        16.741236884938
  C        40.6050122576       17.1229786583        19.551516188838
  C        28.7427057608       14.0614614708        21.804594689338
  C        28.1369509857       12.9125245211        21.068415810438
  C        28.8765734862       12.2198315182        20.097797510738
  C        28.3010395392       11.1610118243        19.399860858938
  C        26.9696723046       10.7695517984        19.646399746338
  C        26.2473386097       11.4498477299        20.644609968438
  C        26.8215924216       12.5087206857        21.345112184838
  C        26.3313979608        9.6787185475        18.871729103238
  C        26.3250354601        9.6912898735        17.449803153938
  C        26.8305928426       10.7966942959        16.695722377738
  C        18.1353873134        3.1793816868       10.3176535969
  C        17.4050665735        4.2763679073       11.0158276928
  C        16.3906257628        3.9976372907       11.9446168069
  C        15.7423559520        5.0374808410       12.6078590411
  C        16.0925961410        6.3814255371       12.3668771443
  C        17.0807175932        6.6512126336       11.4018940135
  C        17.7301924807        5.6140395138       10.7369464859
  C        15.4682608075        7.4892370727       13.1298106120
  C        15.4841392527        7.4891874710       14.5515502356
  C        16.1860606187        6.4959425293       15.3048770939
  C        42.9454812661       31.8596161630       10.0726033100
  C        43.6456008229       30.7721369435       10.8170876735
  C        44.5912662730       31.0933875567       11.8030453085
  C        45.1969454677       30.0877901691       12.5506759353
  C        44.8704578620       28.7347431638       12.3358060514
  C        43.9444488045       28.4204740227       11.3227358301
  C        43.3356392083       29.4256617095       10.5747656595
  C        45.4881459777       27.6554099720       13.1388780656
  C        45.4924141259       27.6810030930       14.5605683948
  C        44.8053337278       28.6890064652       15.3072606587
  C        14.8554764288        8.5619836546       15.2637552298
  C        14.8728021315        8.5608679686       12.4510819610
  C        42.9462193377       31.9615205901        21.798868030638
  C        43.6915934694       30.8853434296        21.085488963138
  C        44.6562742028       31.1912175327        20.113269066338
  C        45.2777335121       30.1716268682        19.395485535138
  C        44.9537514525       28.8213331118        19.632952479938
  C        44.0201596446       28.5236782071        20.643631015238
  C        43.3919769074       29.5404605747        21.355871313338
  C        45.5627104126       27.7239412539        18.847620988738
  C        45.5330175754       27.7173315727        17.426322910438
  C        44.8266830293       28.7076024505        16.673443253838
  C        35.0931457906       26.6364482125        16.739597046938
  C        35.0454661190       26.6170578292        19.549784239938
  C        18.1483091024        3.2467404956        21.696495154338
  C        17.4297198679        4.3436795757        20.987190368438
  C        16.4143771629        4.0523977184        20.063768357638
  C        15.7660850820        5.0829984399        19.388279996738
  C        16.1208151535        6.4282577779        19.610801578838
  C        17.1122898626        6.7116551855        20.567957596938
  C        17.7599550181        5.6827670930        21.247810633038
  C        15.4903244958        7.5239186406        18.838217540438
  C        15.4959888949        7.5070277106        17.417066269638
  C        16.1926400134        6.5051740877        16.670478577538
  H        10.6727334387       12.4666816605        19.893057605738
  H        11.6949204333       10.5519651326        18.651082237138
  H        15.3912337645       11.1678730554        20.762353909338
  H        14.3507298592       13.0704688886        22.007803544338
  H        13.3764264617       11.6310519138        17.190124847138
  H        50.3222612663       22.7483953789        19.976652184338
  H        49.3190002133       24.6226699732        18.670414771238
  H        45.6415469384       24.1609381259        20.853329028738
  H        46.6625593103       22.2901950024        22.161787235938
  H        47.6293308841       23.5757636659        17.235677657938
  H        14.8720310822        8.5884564282        20.597950177238
  H        50.2868359419       22.7030064385       12.0601310035
  H        49.2688010300       24.5758924182       13.3600922098
  H        45.6101854772       24.1093129107       11.1458014037
  H        46.6523247110       22.2540027591        9.8316288854
  H        47.6074443238       23.5519433776       14.7965605102
  H        40.6284703786       17.0675527619       11.4086478005
  H        48.6870435354       14.0950000860        23.789836309238
  H        10.6807394775       12.4666997019       12.0935085292
  H        11.6883289018       10.5242668783       13.2968644596
  H        15.3918004931       11.1561967597       11.2039531851
  H        14.3639770892       13.0851659298        9.9890430683
  H        13.3753820098       11.6212593121       14.7521801426
  H        47.9300706803       14.2183425120        9.7107697483
  H        47.7798730961       14.3733788913        22.485113966938
  H        49.0819211085       18.5518738184       10.8669410060
  H        10.4157905188       14.1342967415        7.9987909871
  H        24.4812909438        3.0218655183        19.905438964738
  H        25.6270938913        4.8762192785        18.677078843538
  H        23.2607188948        7.7519909847        20.828467371338
  H        22.1331885436        5.8878010899        22.058674630738
  H        23.8231885137        5.7851815136        17.247592806338
  H        36.3580008647       32.1910693349        19.972562771838
  H        35.2089524800       30.3740871668        18.707439864338
  H        37.4620412653       27.4368502875        20.897564118938
  H        38.5913640052       29.2669504560        22.172493993738
  H        36.9795247117       29.4563270672        17.291982330338
  H        25.7485217339        8.6006571205        20.635778144338
  H        36.4517554560       32.2397292358       12.1129023288
  H        35.3419970549       30.4245197479       13.4114935936
  H        37.5508318984       27.4865011972       11.1758220426
  H        38.6341878202       29.3132420628        9.8633943020
  H        37.0227673167       29.4741181723       14.8555001137
  H        46.1086764382       26.5877846290       11.3854687581
  H        44.6704766239       35.1163129257        23.800083022938
  H        24.4429626486        3.0350624559       12.0785524206
  H        25.5819223546        4.8714390705       13.3270190772
  H        23.1783419482        7.7659534578       11.2437060725
  H        22.0509068316        5.9175473252        9.9949594110
  H        23.8040601458        5.7871993116       14.8090985018
  H        44.9538142314       34.3890994000        9.6943175557
  H        44.8999814734       34.2056622931        22.478549697338
  H        40.6652957999       33.2095258391       10.8522919315
  H        23.1518216338        1.9577899951        8.0039345191
  H        25.7586252110       19.6412696054        19.905820247338
  H        23.5860241417       19.6925272548        18.676597925438
  H        22.3121396877       16.1726405890        20.793636054738
  H        24.4896358418       16.1369043789        22.024001673638
  H        23.6976346657       17.6561550883        17.228448434138
  H        35.1690422271       15.4225664999        20.005677086738
  H        37.2861271665       15.3841437318        18.686521315738
  H        38.6839022990       18.8266029919        20.853753826738
  H        36.5595973057       18.8482120207        22.174161834638
  H        37.2226163905       17.3580709715        17.233735587938
  H        20.3133833523       17.9382535567        20.630569681238
  H        35.1506201526       15.4362292210       12.0836941158
  H        37.2910762594       15.3579514141       13.3672044192
  H        38.7190398233       18.7724644821       11.1753953112
  H        36.5772142829       18.8274210298        9.8855577646
  H        37.2298604444       17.3413717859       14.7923042611
  H        35.1735729115       26.6751255935       11.4062931505
  H        28.5056750136       21.0718285893        23.861697212238
  H        25.7519098402       19.6529491248       12.1341595179
  H        23.5647351158       19.7107055341       13.3508396709
  H        22.3096194993       16.1799544222       11.2413254397
  H        24.4991018245       16.1391246764       10.0284444077
  H        23.6918855650       17.6605909843       14.7869385105
  H        29.0302149997       21.7082804205        9.7230515198
  H        29.1889565272       21.7091246938        22.537744125138
  H        32.0502012974       18.5819108112       10.9224830550
  H        27.3679459061       19.0218923645        8.0105808240
  H        14.8587219737       19.6767004781       12.0998406689
  H        17.0297326049       19.7337101225       13.3326555020
  H        18.3043281384       16.2000797559       11.2385362932
  H        16.1298936958       16.1591547822       10.0048231193
  H        16.9106229202       17.7230832376       14.7981132741
  H        46.0854695493       15.4293024596       12.0541514131
  H        43.9575272376       15.3600662689       13.3545863659
  H        42.5383143426       18.7983079673       11.1939912291
  H        44.6668307215       18.8424826907        9.8828718332
  H        44.0148199766       17.3073034019       14.8146145799
  H        20.3021091597       17.9500666647       11.3961966067
  H        46.0435189263       15.3891323905        20.019130721538
  H        43.9152307708       15.3275855691        18.720081444438
  H        42.5255148140       18.7985911323        20.846429047738
  H        44.6596781835       18.8454106399        22.147625779838
  H        44.0070749968       17.2996230056        17.253661787838
  H        46.1986906957       26.6822857586        20.613041988438
  H        52.7411375196       21.0625679219        8.1946160565
  H        14.8639109565       19.6704037869        19.888657642138
  H        17.0563176280       19.7367275130        18.688518163738
  H        18.3011431286       16.1897671294        20.777728289438
  H        16.1114328347       16.1480951610        21.988619237838
  H        16.9157429280       17.7185371605        17.236798505238
  H        52.3222328889       21.6735043446        22.284472796638
  H        52.0133182856       21.7024180688        9.4954200069
  H        49.0671260737       18.6081481679        21.193986922538
  H        13.2470978914       19.0163833773        23.964946825638
  H        29.9669623610       12.4477780006       12.2030186537
  H        28.9085521258       10.5188560387       13.3882732819
  H        25.2593951988       11.1895424339       11.2138920858
  H        26.3346313750       13.1098731944       10.0259446744
  H        27.2000296794       11.6569526044       14.7897519099
  H        30.9953587976       22.7942829029       11.9970229820
  H        32.0092651917       24.6664139303       13.2971900313
  H        35.7152837232       24.1086089545       11.1872330478
  H        34.6824599153       22.2389129167        9.8851588373
  H        33.6825805332       23.5719122637       14.7563606947
  H        25.7247869087        8.5886679157       11.4001847517
  H        30.9146514544       22.6277442308        19.854266251838
  H        31.9144092145       24.5260967997        18.582167544038
  H        35.5199035870       24.1697075920        20.901772040938
  H        34.4961073925       22.2884810670        22.186053080738
  H        33.6288645904       23.5595162026        17.194884556938
  H        40.6017152435       17.0952725190        20.639506648638
  H        32.5103058199       14.1386370119        8.2521741527
  H        29.9030111571       12.5259348916        19.909014577238
  H        28.8821822451       10.6191298929        18.656846518838
  H        25.2171687303       11.1601513171        20.841471021738
  H        26.2606547846       13.0498849996        22.103397466938
  H        27.1915735005       11.6712122129        17.229120525638
  H        33.3117003379       14.2367352796        22.456560862038
  H        33.4069535972       14.4162243053        9.5978353965
  H        32.1138225539       18.4470561934        21.126922212138
  H        30.1992186769       14.1433612104        8.0832255143
  H        16.1203102127        2.9609149060       12.1323542752
  H        14.9538270873        4.8177400696       13.3244229094
  H        17.3619410601        7.6842177671       11.2077154280
  H        18.5112276165        5.8169884649       10.0081159678
  H        16.7525783003        5.7385111147       14.7714723408
  H        44.8277505715       32.1404244894       11.9771941731
  H        45.9369031812       30.3414765495       13.3065519205
  H        43.6816488893       27.3784283362       11.1526305287
  H        42.5989698954       29.1903855659        9.8101307806
  H        44.2298879952       29.4367483784       14.7690197873
  H        14.8486150012        8.5436753653       11.3628763251
  H        44.8999047831       32.2338886869        19.921887435338
  H        46.0246891997       30.4128367870        18.642291966338
  H        43.7629684813       27.4839719003        20.835023723938
  H        42.6453191590       29.3176843144        22.114172137338
  H        44.2681788358       29.4704467468        17.208095006438
  H        34.9918830970       26.6308446067        20.636811863938
  H        36.6078252059       35.1344358688        8.1847193293
  H        16.1431948314        3.0128121161        19.894224965138
  H        14.9736810639        4.8560851385        18.678303252038
  H        17.3958910273        7.7471160909        20.744734608338
  H        18.5428976845        5.8932879747        21.972480439938
  H        16.7642775969        5.7551448973        17.208996015638
  H        36.2783885354       34.4830040267        22.263470995538
  H        36.3853699282       34.2073648892        9.4999093838
  H        40.5772181288       33.2014726066        21.143829526138
  H        17.4752645162        1.9457369205        23.966547267638
  H        29.5520651846       19.5779618880       12.5641890821
  H        28.7784250064       18.5295209644        19.706479191238
  H        31.8536756546       15.7202624939        19.532912575838
  H        31.1436512787       15.5626597804       12.4471598925
  H        28.2103821852       18.3887535117       14.2738864345
  H        29.3266139504       15.6240913399       14.4185692862
  H        32.7154067640       17.0653549135        17.446040295438
  H        18.9044360287        0.8519205815       12.3623598882
  H        40.5247223762       35.2296235262        19.941276837838
  H        42.3234516910       34.4181148567        19.579724611238
  H        22.0972477069        0.6986135960       12.3436743237
  H        11.5966778313       18.7126765185       12.3827109510
  H        52.2645486012       18.4312434230        19.667411921338
  H        49.2545779282       16.4767302713        19.574385890638
  H        10.1496303268       15.7983297916       12.2929147235
  H        50.8496315775       17.6926206818        19.943852738438
  H        10.0455427637       17.3946454982       12.0519824699
  H        20.2922128793        0.0045235849       12.0341105119
  H        39.1816805401       36.1249866438        19.678551939038
 Ni        30.7290581472       17.5587182480        18.735446953838
 Ni        31.0721255081       16.2765261325       15.908121656138
 Ni        29.8021028276       18.3808849881        16.240509315238
 Ni        30.1002571121       17.4257519109       13.0811995989
  O        10.6498354394       14.3651501203        21.475538724038
  O        12.6130349251       14.6573642846        22.573628251738
  O        49.1476917465       16.8459577361        23.979591418838
  O        50.3500209541       20.9363972735        21.638114791538
  O        48.3484252065       20.5932899153        22.655813460538
  O        11.0508937233       17.0541143419        22.490369005238
  O        50.3207453805       20.8817696098       10.4068953372
  O        48.3466319052       20.5867301688        9.3271108087
  O        49.5432817051       18.2484504670       10.0683951707
  O        12.3587034524       18.6246632787        7.9997335302
  O        48.6931759010       14.1485945786        22.741097373338
  O         8.2098282294       14.2104128994        9.3225441418
  O        10.7352673656       14.5067893517       10.6643921039
  O        12.5717002009       14.5826524242        9.3286188430
  O        22.8444663673        2.0424825419        21.476839302438
  O        21.6060995125        3.5926044503        22.578679357538
  O        42.0591405986       34.1367890856        23.966604832938
  O        37.9813687951       33.1365559046        21.562236458838
  O        39.2167967659       31.5748245828        22.655240657238
  O        20.3090203286        1.0397614862        22.491487172138
  O        38.0251647181       33.1850779090       10.4168178263
  O        39.2184036326       31.5831222651        9.3275052522
  O        40.6541937662       33.7679803814       10.0580336596
  O        18.2598565795        1.3742863230        7.9983047681
  O        44.6227689191       35.1002334338        22.746549141338
  O        24.2067973450       -0.0001958097        9.3203597421
  O        22.7532436102        2.0568117044       10.5833271662
  O        21.6249067521        3.5961588329        9.3429918380
  O        27.4658317931       18.6809766476        21.406385005138
  O        26.6935533454       16.9269358486        22.645536653738
  O        30.6282754076       19.3488796398        7.9982177391
  O        33.5881655049       16.2713985957        21.657745094838
  O        34.2725361427       18.1652491355        22.724671542038
  O        29.5496141348       17.0063944320        22.557200882138
  O        33.5510830227       16.3382871961       10.4117714640
  O        34.2970846970       18.2384148649        9.4019449750
  O        31.6511245002       18.3146068587       10.0774650200
  O        30.2935170748       15.1091554221        8.0798932625
  O        28.5538365952       21.0237668947        22.813484258938
  O        28.5145553862       20.9502155094        9.3987675614
  O        27.4643743548       18.6791538355       10.6552947346
  O        26.6924701733       16.9288207116        9.4129602852
  O        13.1472326600       18.6937082039       10.5861718146
  O        13.9178520448       16.9158067308        9.4037292714
  O        50.5957330464       19.3503110347        8.0208469868
  O        47.6824117910       16.3271299683       10.4172592226
  O        46.9503284036       18.1756759960        9.3253991609
  O        11.0687589284       17.0160191343        9.4896311228
  O        47.6756066294       16.3359174843        21.642557509638
  O        46.9260580855       18.2358750850        22.653534567338
  O        49.5682608471       18.3178039913        21.972100496938
  O        10.3185839979       15.1001661872        7.9971187519
  O        52.6707109421       21.0280159854        9.2418240625
  O        12.1468031087       20.8913445572        22.663078003638
  O        13.1049570528       18.6140825384        21.315941931138
  O        13.9548428102       16.9861096207        22.655398301738
  O        29.9985442728       14.4319214569       10.6663369550
  O        28.0738060895       14.6536167490        9.4902559276
  O        32.0768399907       16.8527363071        8.0564227416
  O        30.9631076618       20.9508821454       10.4030750845
  O        32.9434276362       20.5996485661        9.3317093664
  O        29.5484855503       17.0713596289        9.5614920493
  O        30.8787377573       20.8105302542        21.565834642538
  O        32.8671693121       20.5843270212        22.653498939538
  O        31.6740522365       18.2396514141        21.968488686938
  O        28.2558717379       18.6288013727        8.0052891889
  O        32.4933105695       14.2105267359        9.3265302589
  O        32.4069270490       14.2122895095        22.811472928538
  O        29.9154610613       14.4325646847        21.478606939038
  O        28.0324434969       14.5854100263        22.735901955438
  O        17.8898258338        1.9651830075       10.6634468145
  O        18.9561963524        3.5265549512        9.4084289376
  O        39.1691725151       34.1390613478        7.9993931741
  O        43.2803784724       33.0592901907       10.3313322435
  O        42.0344269538       31.5065921973        9.2414256666
  O        20.3211440210        1.0370702440        9.4789701143
  O        43.2760715949       33.1825145800        21.564583277838
  O        42.0050729190       31.5841629175        22.572784387038
  O        40.5786519558       33.7747862971        21.925492255838
  O        22.3684646527        1.3848751752        7.9971994612
  O        36.6742524594       35.0996196758        9.2358074097
  O        16.4460622779        0.0646785837        22.657955246738
  O        17.9364118423        2.0432307179        21.316432232238
  O        18.9189621450        3.5931457601        22.655781132138
  O        29.7088017756       18.6023436640        19.989160450638
  O        29.9480511889       18.9166626238       11.9677033198
  O        31.3395070744       16.3426943092        20.080151311238
  O        31.2268596924       16.4169468571       11.9774097156
  O        31.9391050778       16.4897331582        17.576485626638
  O        30.2460170727       15.8961462614       14.2413154785
  O        29.1705732253       18.4684722456       14.4130135907
  O        39.4555060621       35.2437887648        19.991967760438
  O        19.2009739123        0.0037791427       11.9878605737
  O        41.9698827022       35.1723678786        20.076369542338
  O        21.7009521749       -0.0689488080       11.8979512110
  O        51.3645913233       18.6143506609        19.995107367538
  O        10.7509633154       18.7472589010       11.9050707809
  O        50.0790980960       16.4127566930        20.081545310438
  O         9.5238496718       16.4831879153       11.9912217742
 Zr         9.2964792055       16.0527929601        22.172028734838
 Zr        49.8359394316       16.0069237848        9.7466517807
 Zr        22.0724189079        0.0303565847        22.175880074738
 Zr        42.4634413508       35.1518998882        9.7913924842
 Zr        29.5863357623       19.0243736016        22.202911033338
 Zr        29.5713557234       19.1672901214        9.8106780069
 Zr        11.0373764352       19.0523897678        9.8279123531
 Zr        11.0430656014       19.1551740884        22.241195693938
 Zr        31.3284732816       16.0912287758        9.8323873649
 Zr        31.3718847769       15.9887540752        22.252224188438
 Zr        18.6069807183       -0.0001359884        9.7754596087
 Zr        18.5061649530       -0.0088144694        22.206635774238
 Zr        12.3006620568       16.3231800834        23.980440734238
 Zr        48.6158414082       18.8329168727        8.0105005383
 Zr        20.3148067641        2.4739128442        23.979853635838
 Zr        40.6405859646       32.6869613752        23.967402266738
 Zr        28.3196673472       16.3176833638        8.0741168479
 Zr        32.6168304134       18.8300595851        8.0352082992
  H        29.6876387396       16.9403223462        16.771921455438
  H        30.4837636649       18.7378138161        17.654068443538
  H        31.1547629091       17.8362998627       15.6320148302
