     573
 i =      169, E =     -4762.8181232927
  C        11.8587008455       14.0534998316        21.731375772238
  C        12.4561435007       12.8904639958        21.013210367938
  C        11.7046204597       12.1719127302        20.071122432638
  C        12.2809804582       11.1097085855        19.378765874638
  C        13.6214024883       10.7395450633        19.606846645838
  C        14.3543446965       11.4426819975        20.580809835938
  C        13.7814777670       12.5076518280        21.272338558138
  C        14.2609682852        9.6489376544        18.833417315938
  C        14.2563347546        9.6569280015        17.411714484238
  C        13.7431921109       10.7590531038        16.657788921238
  C        49.1264993605       21.2333740430        21.869577340638
  C        48.5496906853       22.4011662762        21.142469849438
  C        49.2997350790       23.0684761755        20.161455499138
  C        48.7327969100       24.1075668174        19.428225117238
  C        47.4022397392       24.5092097228        19.656800706538
  C        46.6712677661       23.8603370416        20.670309651038
  C        47.2337163139       22.8154685026        21.399713319338
  C        46.7720923057       25.5869203775        18.859491988238
  C        46.7612873437       25.5573592077        17.437729449238
  C        47.2612422879       24.4422724747        16.694239851238
  C        14.8602878765        8.5706111810        16.698429030138
  C        14.8917547576        8.5969630495        19.510037900138
  C        49.1130954955       21.2034847959       10.1453804810
  C        48.5278245199       22.3648688154       10.8724012735
  C        49.2670457459       23.0255002131       11.8653945139
  C        48.6907391552       24.0600558188       12.5968412752
  C        47.3603621713       24.4569464975       12.3585400917
  C        46.6399505644       23.8120801899       11.3349812293
  C        47.2134613102       22.7761583851       10.6031945885
  C        46.7219452427       25.5318960447       13.1495911741
  C        46.7337351028       25.5282596915       14.5712915683
  C        47.2490597763       24.4290042140       15.3276866080
  C        40.6195859834       17.0879628069       15.3114367156
  C        40.6258722509       17.1078504911       12.5015862830
  C        11.8828691680       14.0864831378       10.2854588223
  C        12.4720525437       12.9105067052       10.9894993686
  C        11.7147334879       12.1777857215       11.9161556028
  C        12.2812774026       11.0953331525       12.5846060111
  C        13.6198908614       10.7211087384       12.3523277514
  C        14.3575733807       11.4360820142       11.3908411313
  C        13.7921908887       12.5172455160       10.7181103350
  C        14.2535655405        9.6244587841       13.1228000545
  C        14.2523957227        9.6445341033       14.5446438766
  C        13.7426250834       10.7535158684       15.2917422817
  C        22.5120013032        3.2450114987        21.744225110338
  C        23.2257950927        4.3529336706        21.047824873438
  C        24.2238725288        4.0782145548        20.101337566238
  C        24.8473009937        5.1215133696        19.421510840438
  C        24.4880771369        6.4616026409        19.668012988838
  C        23.5193280727        6.7278316881        20.652623988838
  C        22.8914528234        5.6865041243        21.330828977438
  C        25.0861587430        7.5721156253        18.892304043138
  C        25.0557812930        7.5649546656        17.470880838138
  C        24.3569648097        6.5623010476        16.726053735538
  C        38.3018984439       31.9284637368        21.838984705838
  C        37.5710545174       30.8389623715        21.130371649938
  C        36.6092579288       31.1428731654        20.154643976238
  C        35.9906695212       30.1228764897        19.436969452738
  C        36.3190519109       28.7734220965        19.672781874538
  C        37.2509325861       28.4769626817        20.685380238038
  C        37.8734272917       29.4956436724        21.402196752338
  C        35.7171409479       27.6816858959        18.874565914438
  C        35.7481988499       27.6976487251        17.453015778438
  C        36.4498229890       28.7031915649        16.715988924338
  C        25.6720405935        8.6378653096        16.749903318638
  C        25.6775648946        8.6508126696        19.562314864138
  C        38.3284158053       31.9618482323       10.1561296383
  C        37.6064500836       30.8885618993       10.8972819941
  C        36.6753774177       31.1966902058       11.9010072429
  C        36.0650084290       30.1778857123       12.6299256666
  C        36.3715860870       28.8253711860       12.3791321800
  C        37.2801508259       28.5272620954       11.3450607833
  C        37.8923765024       29.5424649164       10.6171426657
  C        35.7647809756       27.7256187608       13.1633854235
  C        35.7724640416       27.7202545017       14.5855204972
  C        36.4607864240       28.7144799100       15.3493884087
  C        46.1357027488       26.6208855985       15.2814173984
  C        46.0879630459       26.5802291323       12.4735237771
  C        22.4595837500        3.2567176833       10.2595667081
  C        23.1495137544        4.3667895502       10.9856222978
  C        24.1473051271        4.0832989289       11.9318723853
  C        24.7711191188        5.1149824496       12.6298462897
  C        24.4180067107        6.4606861704       12.4041927658
  C        23.4429787580        6.7372519914       11.4268634688
  C        22.8142377693        5.7058855445       10.7298313570
  C        25.0449297077        7.5616819998       13.1785717199
  C        25.0349384040        7.5589905873       14.6016309433
  C        24.3445732878        6.5609015583       15.3594279073
  C        26.6160586135       17.8624099667        21.739663007738
  C        25.3097496038       17.9238073931        21.020626299838
  C        25.0533240786       18.9177307046        20.063615320238
  C        23.8349103189       18.9449700120        19.387994949938
  C        22.8399137115       17.9802122082        19.646011862838
  C        23.0924044028       17.0110729957        20.635075345538
  C        24.3106139543       16.9801695544        21.310374648738
  C        21.5672037012       17.9639581794        18.883429441838
  C        21.5698948563       17.9355580847        17.461431609338
  C        22.7766856947       17.8037367428        16.704430295538
  C        34.4407510500       17.1892052822        21.908494248138
  C        35.7344502027       17.1389721867        21.166953893738
  C        35.9432720336       16.1638355367        20.179153081538
  C        37.1232860867       16.1503709809        19.441333070838
  C        38.1277682099       17.1103079468        19.671761319238
  C        37.9227714144       18.0655636238        20.685398166238
  C        36.7392037360       18.0849636946        21.420045527238
  C        39.3801222152       17.1168585886        18.881687803438
  C        39.3706974726       17.1204879492        17.459793519238
  C        38.1605444581       17.2393495625        16.706635668738
  C        20.3246370354       17.9520081701        16.751290859538
  C        20.3422434955       17.9654924596        19.564753388138
  C        34.4359721071       17.2396507351       10.1880143871
  C        35.7332578432       17.1460943156       10.9195632369
  C        35.9389537538       16.1664689743       11.9026697166
  C        37.1299630312       16.1356764209       12.6245133951
  C        38.1446786829       17.0828204052       12.3830087354
  C        37.9436122299       18.0372635026       11.3682613789
  C        36.7521427224       18.0734195961       10.6500065647
  C        39.3968677672       17.0950360079       13.1718921483
  C        39.3792218386       17.1096139215       14.5932635927
  C        38.1650203761       17.2327198013       15.3400614835
  C        35.1460639960       26.6385829581       15.2893631480
  C        35.1788765110       26.6525452834       12.4802445518
  C        26.5753209110       17.8289349799       10.3264854354
  C        25.2621983144       17.8714560348       11.0367510072
  C        24.9980761212       18.8773075065       11.9787790404
  C        23.7791825146       18.9045716664       12.6508820847
  C        22.7949638738       17.9265046277       12.4038643189
  C        23.0544800931       16.9444978935       11.4308349811
  C        24.2741793930       16.9147637874       10.7574467926
  C        21.5290683138       17.9121701488       13.1729618967
  C        21.5499678133       17.9074528566       14.5942673272
  C        22.7665986906       17.7900301406       15.3385163318
  C        14.0465585126       17.8300686795       10.2871025916
  C        15.3521735701       17.8902742005       11.0095472399
  C        15.6103404468       18.8986208024       11.9511302700
  C        16.8201005893       18.9223660917       12.6423248447
  C        17.8051967878       17.9404854421       12.4137635736
  C        17.5521354414       16.9566600424       11.4393562471
  C        16.3418796058       16.9285380169       10.7495846469
  C        19.0732149958       17.9245953237       13.1838497820
  C        19.0688307489       17.9262443141       14.6063003683
  C        17.8603152220       17.8317910740       15.3658991906
  C        46.8013835658       17.2161028078       10.1568544406
  C        45.5069530013       17.1457709425       10.8963960291
  C        45.2995727590       16.1605139606       11.8744836508
  C        44.1150547317       16.1330229738       12.6062617097
  C        43.1061649283       17.0907277333       12.3834871430
  C        43.3099334062       18.0544421394       11.3770780003
  C        44.4953154585       18.0857196636       10.6458597481
  C        41.8532786994       17.0963359492       13.1749862727
  C        41.8637774197       17.0982125285       14.5974626432
  C        43.0753000406       17.1941162363       15.3520937706
  C        20.3140921638       17.9378283654       15.3167575447
  C        20.2984836286       17.9009103827       12.5038030397
  C        46.7857655157       17.2323161969        21.876488310838
  C        45.4850668878       17.1281264087        21.156159717638
  C        45.2676732493       16.1274034737        20.196806935238
  C        44.0810205972       16.0992060602        19.468302139138
  C        43.0821464783       17.0690328399        19.681529350238
  C        43.2908734668       18.0411155158        20.677795244638
  C        44.4783425863       18.0753001102        21.401892288038
  C        41.8343537847       17.0869738883        18.886818199638
  C        41.8543938074       17.0919042518        17.465523855138
  C        43.0708986105       17.1882608309        16.718960673638
  C        46.1534072628       26.6372972620        16.715961344038
  C        46.1620466639       26.6560003125        19.525602809338
  C        14.0436971060       17.8325444758        21.698439474538
  C        15.3630492824       17.9106746397        21.005855919338
  C        15.6309139518       18.9300246557        20.079983557338
  C        16.8579602058       18.9732097828        19.422167253038
  C        17.8440989480       17.9962925390        19.665227176038
  C        17.5828434684       17.0052513674        20.628822415538
  C        16.3577051147       16.9615133816        21.290058967038
  C        19.1109660348       17.9779254142        18.896087462738
  C        19.0885660214       17.9530779075        17.474605526838
  C        17.8699516856       17.8434962053        16.732067157438
  C        28.8056483783       14.0939339187       10.3941963087
  C        28.1872279946       12.9249475415       11.0853005289
  C        28.9024251110       12.1891872684       12.0418638684
  C        28.2981112647       11.1171713617       12.6938909982
  C        26.9643302191       10.7565388016       12.4137545644
  C        26.2709104812       11.4732275615       11.4219648913
  C        26.8727337261       12.5457263369       10.7686796235
  C        26.2916124636        9.6784383128       13.1744099983
  C        26.2735067727        9.7094033269       14.5954326002
  C        26.7693783200       10.8265716090       15.3400193219
  C        32.1821476805       21.2366143561       10.1424919351
  C        32.7790141460       22.3987676668       10.8641298808
  C        32.0344433444       23.0733717711       11.8439354720
  C        32.6068086547       24.1119998281       12.5715721336
  C        33.9393115674       24.5046158478       12.3403318178
  C        34.6663750563       23.8485555972       11.3291515148
  C        34.0966003358       22.8041899945       10.6033752965
  C        34.5677247971       25.5807536849       13.1399364901
  C        34.5602888685       25.5514015944       14.5616166545
  C        34.0600227988       24.4320017826       15.2991009542
  C        25.6669227167        8.6305866869       15.3151673496
  C        25.6600064284        8.6239963276       12.5017081394
  C        32.1152391982       21.1913438680        21.829054300538
  C        32.6985736618       22.3517089086        21.096076703838
  C        31.9672484724       23.0113707300        20.096540142838
  C        32.5445935061       24.0515848236        19.372893901738
  C        33.8682683336       24.4601652314        19.628711144138
  C        34.5811614334       23.8156908445        20.657608014938
  C        34.0075954273       22.7719576821        21.378412354738
  C        34.5087162276       25.5440618131        18.849036536138
  C        34.5296935300       25.5327582443        17.427161972538
  C        34.0448609600       24.4228174292        16.665716713438
  C        40.6144737615       17.0891407494        16.746262093838
  C        40.6059531744       17.1172250877        19.556534892138
  C        28.7208065936       14.0987699938        21.804106767238
  C        28.1029651489       12.9529405570        21.072106780338
  C        28.8359745283       12.2539167868        20.100436733438
  C        28.2534440903       11.1977597966        19.404528409238
  C        26.9214316415       10.8112030458        19.655431786138
  C        26.2052214031       11.4971611331        20.654409602738
  C        26.7858533924       12.5557932703        21.351246569738
  C        26.2814624952        9.7176539779        18.884253327338
  C        26.2702055729        9.7292610260        17.462128043838
  C        26.7655339530       10.8377536212        16.705940688238
  C        18.1354066933        3.1808798367       10.3171732327
  C        17.4060981747        4.2781700154       11.0158522034
  C        16.3902626431        3.9997927213       11.9432182326
  C        15.7424893183        5.0397650362       12.6067047845
  C        16.0944880426        6.3834696060       12.3671262764
  C        17.0840114910        6.6530140669       11.4035249675
  C        17.7331480676        5.6156769356       10.7384962533
  C        15.4701185406        7.4911775429       13.1301420071
  C        15.4854765298        7.4905786564       14.5518537195
  C        16.1871083428        6.4970043152       15.3050062167
  C        42.9458635021       31.8595333867       10.0728578168
  C        43.6462728750       30.7718742871       10.8168178180
  C        44.5920118049       31.0932103516       11.8026777513
  C        45.1977602085       30.0876728798       12.5503159795
  C        44.8711455948       28.7346331312       12.3356209818
  C        43.9450305477       28.4202700063       11.3226928665
  C        43.3361784122       29.4254109946       10.5746765765
  C        45.4887816784       27.6553547773       13.1387990315
  C        45.4930223100       27.6810188159       14.5604891769
  C        44.8059161100       28.6890761251       15.3070775533
  C        14.8565112932        8.5630847138       15.2642019511
  C        14.8747261182        8.5628629799       12.4515399970
  C        42.9464326736       31.9615849883        21.798758288538
  C        43.6915563299       30.8854482215        21.085153786838
  C        44.6564788859       31.1913246845        20.113175464638
  C        45.2779556405       30.1717214406        19.395429681738
  C        44.9537927094       28.8214439784        19.632743922438
  C        44.0198670827       28.5237862063        20.643102557238
  C        43.3916633222       29.5405765866        21.355298632838
  C        45.5628963954       27.7240526149        18.847522623638
  C        45.5333575289       27.7174197363        17.426227130038
  C        44.8271324082       28.7077039457        16.673259751838
  C        35.1322298185       26.6279991261        16.724100323738
  C        35.1144607190       26.6043757885        19.533967543338
  C        18.1486246726        3.2468724520        21.696418388638
  C        17.4300168692        4.3437726359        20.987064232938
  C        16.4146761117        4.0525278456        20.063648186638
  C        15.7663719896        5.0831750930        19.388251931938
  C        16.1211973156        6.4283789588        19.610846240538
  C        17.1127793028        6.7117423201        20.567885544138
  C        17.7604387014        5.6828070775        21.247644311638
  C        15.4906602502        7.5240928182        18.838434264138
  C        15.4965836946        7.5075395896        17.417299155038
  C        16.1933599864        6.5058406467        16.670609935538
  H        10.6726144823       12.4663061468        19.893816644238
  H        11.6947895862       10.5514923560        18.651944974738
  H        15.3912218071       11.1677364648        20.762894724138
  H        14.3507868154       13.0705318130        22.008155696438
  H        13.3761970311       11.6311935381        17.191081945238
  H        50.3224456717       22.7484511262        19.976730259438
  H        49.3192589913       24.6228267330        18.670629579738
  H        45.6417506650       24.1610650484        20.853418088238
  H        46.6626389747       22.2902649099        22.161785137938
  H        47.6295796461       23.5758024748        17.235910459338
  H        14.8720491525        8.5881321559        20.598343271438
  H        50.2870560143       22.7025830234       12.0603538365
  H        49.2691023248       24.5754744523       13.3603878045
  H        45.6105653795       24.1093710912       11.1458852335
  H        46.6525683734       22.2540607702        9.8316379933
  H        47.6077387332       23.5518291442       14.7968183326
  H        40.6273820055       17.0744770291       11.4137109371
  H        48.6870616119       14.0949394242        23.789794172738
  H        10.6814226119       12.4672015178       12.0939299577
  H        11.6896065881       10.5252851421       13.2976782584
  H        15.3927983893       11.1577437808       11.2044296671
  H        14.3643360672       13.0861583032        9.9890708727
  H        13.3757910373       11.6221380732       14.7531285888
  H        47.9300730591       14.2184737665        9.7108249633
  H        47.7799610896       14.3735726699        22.485093976938
  H        49.0823446573       18.5518433431       10.8670916451
  H        10.4159711634       14.1343636254        7.9987887147
  H        24.4883256818        3.0409055160        19.908235591538
  H        25.6210884495        4.9082952554        18.687196512538
  H        23.2350857917        7.7594044456        20.849748673338
  H        22.1208482281        5.8825699285        22.072313806438
  H        23.7991796216        5.8037727486        17.267448422338
  H        36.3713746296       32.1860982601        19.960689919638
  H        35.2446362053       30.3624090798        18.682423648338
  H        37.5121024259       27.4378440969        20.874819502238
  H        38.6184165764       29.2741519203        22.162749509838
  H        37.0113556246       29.4555332948        17.262147557838
  H        25.7147377713        8.6335008735        20.650071665738
  H        36.4508816694       32.2407360375       12.1073876420
  H        35.3374515737       30.4224734771       13.4006748674
  H        37.5287544489       27.4872060316       11.1445245912
  H        38.6162422839       29.3170226365        9.8378289782
  H        37.0318459213       29.4750114194       14.8247137219
  H        46.1092439645       26.5875719756       11.3854858274
  H        44.6681799522       35.1161604148        23.803694883138
  H        24.4251612358        3.0455689844       12.1020996830
  H        25.5486082452        4.8869846474       13.3558726576
  H        23.1579501994        7.7712130228       11.2432899619
  H        22.0457363722        5.9176475197        9.9899834720
  H        23.7764722949        5.8020176603       14.8292444475
  H        44.9536448033       34.3903899061        9.6952802048
  H        44.9012567686       34.2066312134        22.480429199538
  H        40.6656036861       33.2086990336       10.8528744621
  H        23.1503448910        1.9580415655        8.0059954848
  H        25.8171444844       19.6663270668        19.865489365938
  H        23.6388639565       19.7216334319        18.651876367738
  H        22.3352007887       16.2577325464        20.842609793538
  H        24.5179458930       16.2186791910        22.058499688238
  H        23.7161045229       17.6808489083        17.235555183438
  H        35.1633020137       15.4284912025        19.997505792238
  H        37.2829136501       15.3876067640        18.682376737138
  H        38.6898595404       18.8155047784        20.867184216338
  H        36.5641213061       18.8380741746        22.184857215638
  H        37.2232554330       17.3696432647        17.240236022238
  H        20.3474075535       18.0079035898        20.652517246738
  H        35.1496647776       15.4436247177       12.0963423806
  H        37.2877344461       15.3721421649       13.3831136488
  H        38.7193253995       18.7757349514       11.1764829742
  H        36.5779691627       18.8273994460        9.8861782404
  H        37.2303656868       17.3565707261       14.8009330998
  H        35.1514146300       26.6782538520       11.3925274377
  H        28.5095218950       21.0821827369        23.869894264338
  H        25.7596603148       19.6319040370       12.1627234629
  H        23.5731426519       19.6893968177       13.3755162600
  H        22.3031157146       16.1822014511       11.2349881351
  H        24.4899975964       16.1458605457       10.0194568072
  H        23.6982425680       17.6571484698       14.7968430477
  H        29.0074801902       21.7238021704        9.7398695181
  H        29.1668588930       21.7368468498        22.539330508838
  H        32.0661157180       18.5738648596       10.9256693332
  H        27.4027030130       19.0751356409        8.0750449181
  H        14.8522588588       19.6587406128       12.1261955561
  H        17.0169644491       19.7101009548       13.3663732575
  H        18.3026043718       16.1908048906       11.2543889417
  H        16.1341781222       16.1557925842       10.0132469502
  H        16.9184696813       17.7167009423       14.8373553176
  H        46.0843077836       15.4297546009       12.0555763315
  H        43.9572958170       15.3615712820       13.3568272422
  H        42.5399974969       18.8023497908       11.1989783076
  H        44.6672569904       18.8451042964        9.8865552167
  H        44.0154599198       17.3045962057       14.8193618007
  H        20.2942899087       17.9273030192       11.4155707873
  H        46.0439652138       15.3854364059        20.024278948738
  H        43.9148320535       15.3215689718        18.725971472838
  H        42.5249483788       18.7947684051        20.848488407438
  H        44.6599866369       18.8440883133        22.148916278038
  H        44.0078434417       17.2933110823        17.258331707338
  H        46.1986599810       26.6824832805        20.613056916938
  H        52.7410084646       21.0626049702        8.1946188547
  H        14.8675492876       19.6820374003        19.893010127038
  H        17.0654318893       19.7666817040        18.707413661638
  H        18.3362578730       16.2446712136        20.823174328338
  H        16.1401223793       16.1839672432        22.018293710238
  H        16.9353775341       17.7372854034        17.274679970238
  H        52.3219329402       21.6732953255        22.284502892538
  H        52.0131156735       21.7020231160        9.4956650870
  H        49.0671695598       18.6079696819        21.194059061238
  H        13.2470265052       19.0167859987        23.966875320938
  H        29.9300584857       12.4715797276       12.2593412914
  H        28.8544997834       10.5454428788       13.4334871080
  H        25.2403679388       11.2051757254       11.1981604292
  H        26.3347967995       13.1200573939       10.0184578512
  H        27.1284488816       11.6962960901       14.7982659043
  H        31.0107812351       22.7582250191       12.0302378090
  H        32.0247298267       24.6337068906       13.3280245530
  H        35.6977249514       24.1423569770       11.1448944081
  H        34.6635068648       22.2729391972        9.8423137693
  H        33.7141736920       23.5584319807       14.7537298318
  H        25.6939817863        8.6016263222       11.4138621911
  H        30.9476583138       22.6911432272        19.895236644138
  H        31.9714031396       24.5639239130        18.603385864438
  H        35.6057110422       24.1203306132        20.860811227338
  H        34.5637011274       22.2520044714        22.154849953838
  H        33.6883148472       23.5414989486        17.191896639738
  H        40.6029892345       17.0871090035        20.644449427838
  H        32.5045020758       14.1433461454        8.2471172265
  H        29.8638113260       12.5526680154        19.908506662838
  H        28.8302114502       10.6534065273        18.659911767538
  H        25.1746608841       11.2119962216        20.855860093738
  H        26.2280944399       13.1004992587        22.109399753538
  H        27.1197830666       11.7163754052        17.237280202338
  H        33.3092926040       14.2394536847        22.457604254138
  H        33.4065656744       14.4079863866        9.5948713676
  H        32.1384318350       18.4608568045        21.133940341138
  H        30.1886421657       14.1541806541        8.0745835723
  H        16.1181702786        2.9632776324       12.1295301700
  H        14.9529536257        4.8203671148       13.3222667093
  H        17.3665355476        7.6858861586       11.2105396825
  H        18.5153071223        5.8182815358       10.0107662090
  H        16.7536319384        5.7396593469       14.7714772403
  H        44.8284080524       32.1402887648       11.9767212302
  H        45.9377814679       30.3414089901       13.3061129861
  H        43.6820764095       27.3782289969       11.1528062384
  H        42.5993189296       29.1900730349        9.8102467527
  H        44.2305593989       29.4368178439       14.7687393571
  H        14.8508659653        8.5459924945       11.3633240859
  H        44.9002932696       32.2339872032        19.921978916738
  H        46.0250980974       30.4129006950        18.642412457938
  H        43.7624649138       27.4840967202        20.834297631838
  H        42.6448089733       29.3177998685        22.113399658338
  H        44.2685561959       29.4705460860        17.207838009538
  H        35.0701600725       26.6165743751        20.621388484538
  H        36.6050949394       35.1339289924        8.1806708621
  H        16.1434773501        3.0129533879        19.894073936238
  H        14.9739217956        4.8563423327        18.678300664438
  H        17.3964474354        7.7471916690        20.744614340938
  H        18.5434602930        5.8931943663        21.972269737438
  H        16.7647987918        5.7556153533        17.209066978038
  H        36.2787813168       34.4820588385        22.263127909138
  H        36.3809952182       34.2090981148        9.4997877668
  H        40.5797876279       33.2020979630        21.143465253238
  H        17.4708134121        1.9469670245        23.963884422338
  H        29.2162280613       19.4329625398       12.5096708904
  H        28.7580500506       18.6397180429        19.791122391638
  H        31.6564677470       15.6894817454        19.519262777838
  H        31.2753049420       15.6270478986       12.4677127998
  H        27.8320012876       17.7101981855       14.2042347936
  H        29.1865478628       15.3877127815       14.3022796210
  H        31.0043122461       20.0873207831        18.369254991338
  H        32.3118788903       17.4071322552        17.165709327538
  H        33.3280384743       18.5709245404       14.0971018626
  H        18.8530009460        0.8688762216       12.3352476297
  H        40.5280220153       35.2290807690        19.941868385238
  H        42.3241728802       34.4188785693        19.580428464838
  H        22.0875757833        0.6921837592       12.3512891459
  H        11.5969388395       18.7127984704       12.3824339310
  H        52.2646391931       18.4309122931        19.667360152838
  H        49.2549110304       16.4769398019        19.574501618338
  H        10.1501927237       15.7981670069       12.2927316690
  H        50.8496649791       17.6924162676        19.944010801538
  H        10.0460195597       17.3945638399       12.0520048382
  H        20.2140408162        0.0020281095       12.0420484558
  H        39.1838114858       36.1245878600        19.676372312238
 Ni        30.6057639443       17.6155220266        18.734221486638
 Ni        30.7772461713       16.3951281057       15.744768356738
 Ni        29.3000255012       18.0812670917        16.079945122738
 Ni        29.9284284443       17.3313575641       13.0742694497
  O        10.6499516465       14.3651462304        21.475634315138
  O        12.6131841774       14.6575449755        22.573706614838
  O        49.1477633460       16.8459676320        23.979636100538
  O        50.3500568376       20.9361472108        21.638064996838
  O        48.3484609703       20.5932524535        22.655824048738
  O        11.0513373303       17.0539797322        22.490500927538
  O        50.3209634736       20.8816563142       10.4068033225
  O        48.3467128621       20.5867381533        9.3271075573
  O        49.5434017028       18.2484057491       10.0683658040
  O        12.3587953573       18.6245649295        7.9997351755
  O        48.6932141792       14.1485794324        22.741099560438
  O         8.2098354514       14.2104642152        9.3225937142
  O        10.7353295786       14.5067703195       10.6643149050
  O        12.5717869995       14.5828285590        9.3284804744
  O        22.8447604644        2.0441644423        21.476945214638
  O        21.6049124344        3.5920062245        22.580429351438
  O        42.0581269481       34.1373570595        23.968730667738
  O        37.9814399852       33.1368938823        21.562329177038
  O        39.2180780540       31.5758320523        22.656320135438
  O        20.3083455719        1.0394503441        22.491894131938
  O        38.0246325698       33.1857994859       10.4150827505
  O        39.2191557994       31.5838032620        9.3264387727
  O        40.6522709862       33.7692808297       10.0601714722
  O        18.2555556357        1.3758823161        7.9967719706
  O        44.6222230862       35.1005573001        22.748511482138
  O        24.2053646383        0.0000598964        9.3208189807
  O        22.7530808142        2.0586143724       10.5844504923
  O        21.6245273978        3.5964043722        9.3431811848
  O        27.5366916152       18.6942972705        21.401888998838
  O        26.7286369983       16.9896304484        22.657611747138
  O        30.6620396562       19.4092776655        8.0059743954
  O        33.5861551875       16.2722599858        21.658071737638
  O        34.2738473948       18.1644953541        22.724656401138
  O        29.5733411109       17.0582156390        22.569275645038
  O        33.5522475728       16.3386588576       10.4132061470
  O        34.2990610840       18.2386192335        9.4044857200
  O        31.6516868949       18.3187101648       10.0846837793
  O        30.2927782089       15.1190975116        8.0814373236
  O        28.5550643006       21.0313673607        22.818114221138
  O        28.5149268058       20.9563579388        9.4022218190
  O        27.4613581523       18.6805798981       10.6573859118
  O        26.6936740605       16.9302326158        9.4135258656
  O        13.1484413579       18.6932025519       10.5871248939
  O        13.9192288627       16.9161676531        9.4048550669
  O        50.5957382231       19.3502144162        8.0207405625
  O        47.6821549696       16.3272327349       10.4174160515
  O        46.9501428125       18.1756437476        9.3256215147
  O        11.0694008784       17.0156609778        9.4896401502
  O        47.6761406273       16.3357252928        21.642848534638
  O        46.9264573831       18.2357725726        22.653776483438
  O        49.5684050916       18.3177398593        21.972155149938
  O        10.3186845962       15.1002254490        7.9970889823
  O        52.6707157215       21.0278935174        9.2418268362
  O        12.1467691063       20.8912578255        22.663070135338
  O        13.1062894086       18.6142383877        21.315624052238
  O        13.9568143141       16.9873499164        22.654602793238
  O        29.9915007993       14.4419999302       10.7311128728
  O        28.0871941164       14.6545674749        9.4953426061
  O        32.0753969695       16.8572395125        8.0625413843
  O        30.9650269993       20.9500538649       10.4053512658
  O        32.9464477274       20.5989105191        9.3336536060
  O        29.5592159487       17.0765859042        9.5693950492
  O        30.9002462073       20.8694450483        21.565515580238
  O        32.8756159580       20.5864420127        22.653881387538
  O        31.6822514896       18.2487407092        21.966184211838
  O        28.2895459925       18.6796270316        8.0578212338
  O        32.4904274298       14.2119073153        9.3259182594
  O        32.4041488302       14.2156673777        22.811667971738
  O        29.9075697585       14.4392776103        21.484287591038
  O        28.0069538368       14.6474472317        22.722905956838
  O        17.8891851753        1.9666118414       10.6628478402
  O        18.9561983045        3.5271454965        9.4080135267
  O        39.1686336592       34.1387397183        7.9971665980
  O        43.2802263731       33.0589734637       10.3316886646
  O        42.0345498952       31.5064457509        9.2416017752
  O        20.3176516949        1.0366756339        9.4803768251
  O        43.2760890340       33.1825885821        21.564687534938
  O        42.0052865356       31.5840822512        22.572757319938
  O        40.5789468039       33.7748767864        21.925522615938
  O        22.3673488152        1.3846675558        7.9980050472
  O        36.6727220875       35.0997583329        9.2332980266
  O        16.4455291277        0.0641573534        22.658024482838
  O        17.9364295497        2.0433482026        21.316178236238
  O        18.9189695452        3.5931140051        22.655770276038
  O        29.7067923165       18.7550652942        19.990503241138
  O        29.8622921884       18.9076270425       12.0000135503
  O        31.3067444607       16.4108285104        20.072496341238
  O        31.2635589643       16.4842621533       11.9968749299
  O        31.6365406388       16.7195606104        17.340952772338
  O        30.0753225419       15.7663099050       14.1668211157
  O        32.6158813707       18.6868235888       14.7469083647
  O        31.7787263665       19.7181425285        17.906024656338
  O        28.6838514777       18.1727552419       14.3108289475
  O        39.4568955896       35.2438836965        19.991737966738
  O        19.1408617475        0.0043701661       11.9905910780
  O        41.9696938396       35.1727174702        20.077040234838
  O        21.6911921655       -0.0693354624       11.8957771537
  O        51.3647802001       18.6142577152        19.995177896638
  O        10.7511272188       18.7471333319       11.9049388238
  O        50.0794951574       16.4127998025        20.081551887838
  O         9.5244075363       16.4830865855       11.9912052121
 Zr         9.2965868415       16.0527494901        22.172161322238
 Zr        49.8359551315       16.0068972487        9.7466041124
 Zr        22.0731502409        0.0298817226        22.178866467038
 Zr        42.4608781796       35.1534059137        9.8009407406
 Zr        29.6188066861       19.0715654964        22.225079507738
 Zr        29.5852591500       19.1833195643        9.8266829621
 Zr        11.0374770889       19.0521426090        9.8277388375
 Zr        11.0431371704       19.1550319841        22.241028974838
 Zr        31.3320217681       16.0954352710        9.8444370794
 Zr        31.3745877972       16.0060556713        22.250647695638
 Zr        18.6010240813       -0.0017611453        9.7633249293
 Zr        18.5063943960       -0.0081990122        22.203421680438
 Zr        12.3014322010       16.3234664463        23.980093200838
 Zr        48.6156421707       18.8329967616        8.0105973551
 Zr        20.3151505717        2.4731493156        23.980595056838
 Zr        40.6431812939       32.6867190657        23.967936522638
 Zr        28.3338540409       16.3463056760        8.0820005311
 Zr        32.6266965690       18.8373635909        8.0348111828
  H        31.8252180534       18.3008786243       14.3067512728
  H        31.5640278399       19.7565281981        16.955052122238
  H        29.3808796067       17.8178880409        17.629486258438
