     573
 i =      250, E =     -4762.8402996464
  C        11.8587708089       14.0534630408        21.731372069838
  C        12.4562746287       12.8905547154        21.013097797938
  C        11.7046411964       12.1717556690        20.071287602738
  C        12.2810293847       11.1095765003        19.378912182138
  C        13.6215383631       10.7396372151        19.606821206338
  C        14.3546318110       11.4430572638        20.580455949438
  C        13.7817257217       12.5079980131        21.271992308338
  C        14.2611281430        9.6490486683        18.833388066838
  C        14.2563608804        9.6569422857        17.411689109238
  C        13.7432125336       10.7590706928        16.657775140638
  C        49.1267465691       21.2332869056        21.869535744738
  C        48.5499559611       22.4011379647        21.142374682538
  C        49.2999779533       23.0684193151        20.161342850938
  C        48.7330441672       24.1075545241        19.428141284938
  C        47.4025361372       24.5092677844        19.656848168738
  C        46.6716034680       23.8604356245        20.670405407838
  C        47.2340523182       22.8155271539        21.399755291838
  C        46.7722610536       25.5869213147        18.859558787938
  C        46.7613038377       25.5573193171        17.437801178938
  C        47.2611062369       24.4421590571        16.694316442938
  C        14.8603993884        8.5706661561        16.698415709638
  C        14.8919120866        8.5970879319        19.510020555738
  C        49.1132728311       21.2034668020       10.1453362536
  C        48.5279293079       22.3648169302       10.8725233730
  C        49.2670547708       23.0253383506       11.8656410050
  C        48.6907484929       24.0599334582       12.5970590805
  C        47.3604158855       24.4568919074       12.3586673364
  C        46.6401239641       23.8121936083       11.3349201462
  C        47.2136485196       22.7762404473       10.6031768254
  C        46.7219809473       25.5318715496       13.1496725679
  C        46.7335463478       25.5281313441       14.5713744909
  C        47.2488958912       24.4288801673       15.3277629938
  C        40.6315339321       17.1120601563       15.3229119882
  C        40.6473948840       17.1534019119       12.5137388192
  C        11.8830530725       14.0865739433       10.2856025867
  C        12.4722811326       12.9106736438       10.9896699528
  C        11.7148057210       12.1776010978       11.9159207340
  C        12.2814072124       11.0951811966       12.5843784314
  C        13.6201537000       10.7212749245       12.3523645937
  C        14.3580262176       11.4366401800       11.3913275438
  C        13.7925869621       12.5177688918       10.7185966319
  C        14.2537983168        9.6245880495       13.1228100400
  C        14.2525320616        9.6445936500       14.5446483490
  C        13.7426454810       10.7535321561       15.2917291106
  C        22.5116744828        3.2439654191        21.743186232738
  C        23.2259862659        4.3487281648        21.043712406138
  C        24.2204939675        4.0680986412        20.095157167938
  C        24.8470620679        5.1075025621        19.412737567038
  C        24.4945882664        6.4492021398        19.659145650938
  C        23.5286287109        6.7212995839        20.644943339238
  C        22.8972705233        5.6837829254        21.325623200338
  C        25.0987497393        7.5561336999        18.883610034238
  C        25.0655380424        7.5521964247        17.462336609838
  C        24.3621487519        6.5537805155        16.716236565338
  C        38.3033299947       31.9301812369        21.838651007638
  C        37.5747172479       30.8405997737        21.128475743238
  C        36.6161533121       31.1441780788        20.149767241838
  C        36.0002607965       30.1235555518        19.430924543838
  C        36.3281303707       28.7746919458        19.669964277338
  C        37.2571896156       28.4785661448        20.684997349938
  C        37.8772649916       29.4978999916        21.402515094338
  C        35.7262153167       27.6826874250        18.873268185838
  C        35.7563634044       27.6972961099        17.452021536738
  C        36.4623285276       28.6990980314        16.714023163138
  C        25.6846155694        8.6245582521        16.742980938938
  C        25.6997260025        8.6282746454        19.554877497638
  C        38.3286066455       31.9618768388       10.1559231615
  C        37.6071211215       30.8877353794       10.8970770829
  C        36.6778256206       31.1949900696       11.9025998378
  C        36.0686053864       30.1754508279       12.6315162665
  C        36.3745025839       28.8232004055       12.3786059571
  C        37.2810316552       28.5258732708       11.3426420768
  C        37.8923440661       29.5419166989       10.6149921878
  C        35.7679438368       27.7234996710       13.1632238405
  C        35.7777853815       27.7180933348       14.5852362883
  C        36.4719641181       28.7094698619       15.3475258639
  C        46.1356404837       26.6208289346       15.2815054266
  C        46.0880859425       26.5802602537       12.4736097291
  C        22.4602737418        3.2563214434       10.2579284389
  C        23.1521407455        4.3661201458       10.9810287685
  C        24.1527907839        4.0824339870       11.9240971857
  C        24.7779061534        5.1142353127       12.6202263062
  C        24.4227925781        6.4595514189       12.3959198267
  C        23.4455552985        6.7364240756       11.4210810071
  C        22.8156515398        5.7049334862       10.7255668860
  C        25.0503296452        7.5592372128       13.1706877868
  C        25.0409590130        7.5534307093       14.5935264338
  C        24.3486056181        6.5554114362       15.3495718450
  C        26.6131097779       17.8577191822        21.773410277538
  C        25.3056400259       17.9068279375        21.051560571538
  C        25.0393610845       18.9147216575        20.111176272238
  C        23.8270991531       18.9351043099        19.424235772538
  C        22.8440355356       17.9521483341        19.657427027838
  C        23.1056179602       16.9672603319        20.628617248338
  C        24.3203944550       16.9406201870        21.312193551138
  C        21.5719394279       17.9398707993        18.891285799638
  C        21.5744675255       17.9235201659        17.468874877838
  C        22.7818777083       17.8040654055        16.710942038838
  C        34.4397809231       17.1879485791        21.909276229838
  C        35.7337590212       17.1361204290        21.168199391438
  C        35.9376620789       16.1679500472        20.172709275538
  C        37.1179694653       16.1546496578        19.435394735338
  C        38.1267053682       17.1076617633        19.675000488438
  C        37.9264309919       18.0555668982        20.696423476338
  C        36.7426547879       18.0749693759        21.430232109038
  C        39.3802601551       17.1150307568        18.888060385538
  C        39.3752350700       17.1291417110        17.466500868338
  C        38.1676730754       17.2536492994        16.710103314738
  C        20.3290830493       17.9417382599        16.758124810838
  C        20.3465634976       17.9397957407        19.571767261038
  C        34.4680652285       17.2446398222       10.1825178084
  C        35.7666646059       17.1726769174       10.9141755642
  C        35.9805629853       16.1860935991       11.8884132988
  C        37.1674124533       16.1640408571       12.6154909474
  C        38.1686783195       17.1277646552       12.3872229441
  C        37.9600199328       18.0912563083       11.3830345876
  C        36.7712990540       18.1181748647       10.6587635783
  C        39.4172384173       17.1396539719       13.1799070695
  C        39.3941732021       17.1421629207       14.6007766637
  C        38.1769351943       17.2579645945       15.3435817945
  C        35.1469853878       26.6397095401       15.2902232790
  C        35.1791129879       26.6513331563       12.4812374484
  C        26.5764235271       17.8259176039       10.3259543035
  C        25.2634604250       17.8675131597       11.0384432903
  C        24.9953499563       18.8799670060       11.9723306097
  C        23.7774109531       18.9070300894       12.6465249341
  C        22.7974729472       17.9224916939       12.4089812202
  C        23.0609078454       16.9331324468       11.4445272606
  C        24.2798390447       16.9035140271       10.7694160163
  C        21.5317791665       17.9089630158       13.1791536313
  C        21.5536778236       17.9058116459       14.6006076823
  C        22.7713029211       17.7950999110       15.3447187782
  C        14.0475746216       17.8294003607       10.2884657467
  C        15.3529407077       17.8878458490       11.0128202060
  C        15.6106612776       18.8932580736       11.9578878223
  C        16.8200948925       18.9155319263       12.6501542033
  C        17.8066249887       17.9352086239       12.4199509583
  C        17.5537593880       16.9540974438       11.4425009203
  C        16.3437971466       16.9273737733       10.7516439374
  C        19.0753291857       17.9190830697       13.1903034221
  C        19.0721130544       17.9198302975       14.6129444421
  C        17.8639501971       17.8233252269       15.3727420429
  C        46.8051713051       17.2186225355       10.1590839455
  C        45.5156471857       17.1565016667       10.9053276537
  C        45.3087748957       16.1754780043       11.8874349159
  C        44.1278128017       16.1569582670       12.6246445126
  C        43.1240694359       17.1197620193       12.4019689732
  C        43.3281640413       18.0804642013       11.3930462719
  C        44.5095879517       18.1025425297       10.6563915940
  C        41.8717763220       17.1307355188       13.1917251712
  C        41.8780654524       17.1234907834       14.6136695796
  C        43.0875127156       17.2111841029       15.3724166781
  C        20.3178363862       17.9320379720       15.3233172740
  C        20.3009046746       17.8958485921       12.5102732771
  C        46.7859311332       17.2300719053        21.880268869038
  C        45.4826756844       17.1209971763        21.166798268038
  C        45.2656866499       16.1199364082        20.207981445238
  C        44.0779668612       16.0904264407        19.481740393038
  C        43.0787590350       17.0588616017        19.698194257038
  C        43.2856404028       18.0290360348        20.696432976838
  C        44.4745024325       18.0650045429        21.417617787938
  C        41.8335985831       17.0807482837        18.900775869038
  C        41.8588228093       17.0964370741        17.480048365538
  C        43.0783700400       17.1961920398        16.738909200438
  C        46.1532849705       26.6371951092        16.716054116138
  C        46.1624257912       26.6561079614        19.525685385238
  C        14.0444976849       17.8316185647        21.698621235438
  C        15.3644345281       17.9061834151        21.007104417138
  C        15.6370534197       18.9240534654        20.081084967238
  C        16.8654664800       18.9626663700        19.425562554438
  C        17.8480994095       17.9825625939        19.670731681038
  C        17.5821110712       16.9931632026        20.634639682038
  C        16.3557957940       16.9541478249        21.293792627838
  C        19.1153977883       17.9600506416        18.902665980238
  C        19.0930328214       17.9400184619        17.481224409838
  C        17.8741655878       17.8322417835        16.738764473338
  C        28.8087674491       14.0943031150       10.3957594062
  C        28.1920995770       12.9237057099       11.0853091591
  C        28.9076054655       12.1897114312       12.0428300853
  C        28.3047146143       11.1159558927       12.6932068243
  C        26.9721856404       10.7526899402       12.4105722898
  C        26.2787664593       11.4677234909       11.4176913241
  C        26.8793488478       12.5414061296       10.7655755462
  C        26.2996129768        9.6739000677       13.1696159794
  C        26.2829904040        9.7016534830       14.5905555975
  C        26.7804569731       10.8168476662       15.3369658362
  C        32.1812911542       21.2368217172       10.1428051232
  C        32.7782254084       22.3994039074       10.8658490300
  C        32.0287794550       23.0817253078       11.8364936443
  C        32.6001313868       24.1207285226       12.5647716154
  C        33.9364599776       24.5055212586       12.3428915173
  C        34.6688701107       23.8415504906       11.3408883659
  C        34.0998466430       22.7970562462       10.6145822939
  C        34.5645630280       25.5821634864       13.1420681590
  C        34.5546635696       25.5554277068       14.5636367146
  C        34.0434667888       24.4418916028       15.3028246455
  C        25.6760179904        8.6218924512       15.3085151405
  C        25.6662828516        8.6216186834       12.4952819743
  C        32.1057587475       21.2264534247        21.870819171838
  C        32.6968856607       22.3804766857        21.129850416538
  C        31.9560162075       23.0543898317        20.146591521338
  C        32.5370199220       24.0819554805        19.406997993938
  C        33.8722472752       24.4679227889        19.636257811438
  C        34.5954941117       23.8098229712        20.648988816038
  C        34.0195320835       22.7749670077        21.381496966238
  C        34.5123486447       25.5488780175        18.851468585038
  C        34.5268575686       25.5390253087        17.429875019638
  C        34.0290015564       24.4343782863        16.669484600538
  C        40.6213437321       17.1018005735        16.757129839638
  C        40.6036252862       17.1078676938        19.566822973038
  C        28.7437939461       14.0665005294        21.806126911138
  C        28.1346041332       12.9182684343        21.071058696638
  C        28.8640789913       12.2307348897        20.089330778938
  C        28.2812729037       11.1751777479        19.392112493438
  C        26.9529077068       10.7814304193        19.651021226838
  C        26.2411981261       11.4561613538        20.660482200238
  C        26.8223890404       12.5120175485        21.359632052638
  C        26.3074910571        9.6935794384        18.878065807438
  C        26.2889456154        9.7114531719        17.456390766038
  C        26.7817823031       10.8227481928        16.702769488638
  C        18.1354565053        3.1810243237       10.3171899238
  C        17.4061367909        4.2782703553       11.0157834528
  C        16.3903240411        3.9999437877       11.9431966157
  C        15.7426106107        5.0399499016       12.6066575399
  C        16.0947532714        6.3836368991       12.3671518640
  C        17.0843132618        6.6531325588       11.4035747649
  C        17.7333980193        5.6157629708       10.7385629813
  C        15.4703132178        7.4913152604       13.1301365076
  C        15.4856619253        7.4906817940       14.5518437018
  C        16.1872314805        6.4970681385       15.3049989115
  C        42.9458966072       31.8596111876       10.0729775972
  C        43.6464313014       30.7719249660       10.8168121750
  C        44.5918359857       31.0932843168       11.8029849946
  C        45.1976224690       30.0877474335       12.5506046998
  C        44.8713316061       28.7346707636       12.3356512087
  C        43.9455266027       28.4203020127       11.3224291748
  C        43.3366365837       29.4254338436       10.5744332537
  C        45.4888547090       27.6553704106       13.1388806407
  C        45.4929247840       27.6809449113       14.5605777153
  C        44.8059032844       28.6890447947       15.3071886213
  C        14.8565779331        8.5631082599       15.2641965654
  C        14.8750591279        8.5630759246       12.4515269973
  C        42.9465226921       31.9616182504        21.798811121638
  C        43.6917556989       30.8854764449        21.085302037738
  C        44.6563399502       31.1913987561        20.113005128538
  C        45.2778700319       30.1718171853        19.395271927838
  C        44.9541010578       28.8215018116        19.632907718838
  C        44.0205778469       28.5238222912        20.643643866838
  C        43.3923225250       29.5405835554        21.355832570038
  C        45.5630721699       27.7240772013        18.847638009538
  C        45.5334281733       27.7174197190        17.426337155138
  C        44.8271021512       28.7076387086        16.673372775238
  C        35.1344529705       26.6301953542        16.724846238238
  C        35.1230690988       26.6069933349        19.534669841038
  C        18.1485381493        3.2470379303        21.696440541938
  C        17.4301189198        4.3438839053        20.987001061838
  C        16.4147183795        4.0526512839        20.063635962638
  C        15.7664278159        5.0833108316        19.388273200638
  C        16.1213312517        6.4285052939        19.610828752638
  C        17.1129598106        6.7118538034        20.567822844538
  C        17.7606222904        5.6829147483        21.247558980738
  C        15.4907864385        7.5242009627        18.838415325438
  C        15.4966470734        7.5075729440        17.417285968338
  C        16.1934903990        6.5059203061        16.670600159338
  H        10.6725515230       12.4659761401        19.894166193738
  H        11.6947832727       10.5511828911        18.652270836638
  H        15.3916146645       11.1683601511        20.762306544538
  H        14.3511352558       13.0710892110        22.007569904638
  H        13.3761948623       11.6311969311        17.191078422738
  H        50.3226712025       22.7483399061        19.976573917838
  H        49.3195014079       24.6228015770        18.670529511438
  H        45.6421363330       24.1612668887        20.853635349138
  H        46.6630620202       22.2903210085        22.161892369738
  H        47.6295490028       23.5757409880        17.236003465238
  H        14.8723140151        8.5883355219        20.598328630238
  H        50.2870325929       22.7023558094       12.0606738894
  H        49.2690639353       24.5752444876       13.3607175800
  H        45.6107942560       24.1096068777       11.1456994278
  H        46.6528897519       22.2542628957        9.8314389513
  H        47.6075663702       23.5517080491       14.7968788465
  H        40.6521733711       17.1267839206       11.4257511406
  H        48.6871636760       14.0947979747        23.789811860338
  H        10.6813866410       12.4667775375       12.0934626768
  H        11.6896636977       10.5248654897       13.2971814331
  H        15.3933902586       11.1586180288       11.2052274548
  H        14.3648780017       13.0870150154        9.9899356438
  H        13.3758201375       11.6221519717       14.7531008456
  H        47.9301786686       14.2182000392        9.7108137176
  H        47.7801092235       14.3736941969        22.485158467138
  H        49.0836311221       18.5523574189       10.8674311610
  H        10.4161932427       14.1342942247        7.9987645353
  H        24.4798393622        3.0293429857        19.903140080738
  H        25.6183251289        4.8903016287        18.676948572838
  H        23.2498211833        7.7545139560        20.841197235738
  H        22.1290114043        5.8839917441        22.068451506038
  H        23.8025732900        5.7958020312        17.256575646138
  H        36.3790478199       32.1873372610        19.954532347138
  H        35.2564340148       30.3618811397        18.673840094238
  H        37.5176625707       27.4395787287        20.876016505438
  H        38.6203684006       29.2778426141        22.165285169438
  H        37.0280405505       29.4487952105        17.259519115438
  H        25.7406714226        8.6071876636        20.642405723238
  H        36.4539543720       32.2388822043       12.1104768254
  H        35.3426879429       30.4193122575       13.4040433076
  H        37.5290820942       27.4860207228       11.1403382204
  H        38.6149909994       29.3173481410        9.8342908213
  H        37.0460841163       29.4667464230       14.8214667949
  H        46.1096086944       26.5877248453       11.3855753490
  H        44.6683270255       35.1162639390        23.803738250738
  H        24.4314286171        3.0447628595       12.0932564036
  H        25.5574257501        4.8871350678       13.3443374173
  H        23.1598640231        7.7703795617       11.2385589343
  H        22.0452404007        5.9161021403        9.9875740109
  H        23.7781147660        5.7991997549       14.8181678346
  H        44.9540639946       34.3906678628        9.6954140801
  H        44.9019324049       34.2068166250        22.480516066538
  H        40.6660437597       33.2090845743       10.8531431012
  H        23.1502864748        1.9581733737        8.0054833958
  H        25.7927818553       19.6790910269        19.934882318738
  H        23.6256504413       19.7220237584        18.700492251938
  H        22.3581432358       16.1992932709        20.817095198238
  H        24.5340906043       16.1660281849        22.045081706938
  H        23.7222109443       17.6871132873        17.241994314838
  H        35.1542679644       15.4376765931        19.985182089638
  H        37.2747619063       15.3969641969        18.670766406538
  H        38.6979083380       18.7992558540        20.885163857538
  H        36.5704256726       18.8216654121        22.201967369738
  H        37.2286725540       17.3772502740        17.242122263338
  H        20.3515138255       17.9754370234        20.659781021538
  H        35.1993925138       15.4515752398       12.0695012252
  H        37.3333586378       15.3953262126       13.3670866146
  H        38.7272989439       18.8415010047       11.2032734964
  H        36.5888943243       18.8771247534        9.9015899638
  H        37.2444456238       17.3827575558       14.8008556677
  H        35.1519934062       26.6756542470       11.3934816263
  H        28.5005289401       21.0855612205        23.872133615038
  H        25.7525615082       19.6411780332       12.1470948951
  H        23.5685420681       19.6971522669       13.3646047318
  H        22.3129971168       16.1655306996       11.2562979114
  H        24.4985130201       16.1292227259       10.0378688213
  H        23.7037138645       17.6711382761       14.8022009544
  H        29.0060610277       21.7238865073        9.7425684568
  H        29.1906555283       21.7213860228        22.552249148438
  H        32.0839501233       18.5634602473       10.9209308265
  H        27.4033429694       19.0736340930        8.0832344911
  H        14.8525436397       19.6529144619       12.1348932134
  H        17.0155932294       19.7016477051       13.3763426485
  H        18.3044755995       16.1890126552       11.2552713783
  H        16.1376017273       16.1563974939       10.0130039619
  H        16.9220247741       17.7083819174       14.8443278671
  H        46.0906113121       15.4411071442       12.0663172295
  H        43.9678108348       15.3882921471       13.3775261363
  H        42.5612983970       18.8319374752       11.2169283188
  H        44.6835359446       18.8584608100        9.8941818258
  H        44.0294853536       17.3233935213       14.8432159747
  H        20.2969127983       17.9211319342       11.4220032716
  H        46.0437139569       15.3803945866        20.033031577538
  H        43.9116419786       15.3142630150        18.737914586538
  H        42.5181073871       18.7805119172        20.869346004138
  H        44.6567784731       18.8329965752        22.165276685438
  H        44.0134340285       17.2957853031        17.282480929338
  H        46.1992755948       26.6826646769        20.613131410038
  H        52.7411035830       21.0625842966        8.1946605853
  H        14.8764838249       19.6784085851        19.892098668538
  H        17.0768683857       19.7549569787        18.710662126738
  H        18.3326316426       16.2302020213        20.830851282038
  H        16.1344810763       16.1778998594        22.022234375838
  H        16.9398809937       17.7241740204        17.281462713138
  H        52.3221753273       21.6732545136        22.284291405238
  H        52.0130705705       21.7019043439        9.4956421844
  H        49.0673400640       18.6076890731        21.194067768338
  H        13.2474742996       19.0164227348        23.967124457238
  H        29.9339845541       12.4754152858       12.2622084141
  H        28.8611738455       10.5449711170       13.4333142676
  H        25.2492740724       11.1972118514       11.1920770964
  H        26.3419329154       13.1143813436       10.0139813875
  H        27.1368536331       11.6887384378       14.7969631674
  H        31.0014713532       22.7729796648       12.0137276543
  H        32.0140399958       24.6497456879       13.3130825939
  H        35.7030710457       24.1298915564       11.1640155294
  H        34.6698431449       22.2596579497        9.8600977347
  H        33.6868651538       23.5729344136       14.7571649157
  H        25.6996582528        8.6011727482       11.4073863363
  H        30.9240895765       22.7560696587        19.974359441038
  H        31.9570067201       24.6057160769        18.650172531538
  H        35.6287541927       24.0980003231        20.831286234938
  H        34.5831899318       22.2431010943        22.144467058038
  H        33.6625803413       23.5591699568        17.198816741638
  H        40.5972315398       17.0699027011        20.654463254238
  H        32.5051397375       14.1442412576        8.2414227825
  H        29.8881747317       12.5380843290        19.890233585938
  H        28.8545110090       10.6380530565        18.639569639938
  H        25.2134933361       11.1647645147        20.867428331638
  H        26.2693428640       13.0494040384        22.126298120938
  H        27.1376041747       11.6992917697        17.236413157938
  H        33.3092356628       14.2404043281        22.458959241738
  H        33.4089680554       14.4084597843        9.5927242026
  H        32.1560628164       18.4791418344        21.159618767138
  H        30.1890076922       14.1508006427        8.0745867288
  H        16.1181336414        2.9634552228       12.1294661390
  H        14.9530521921        4.8206302108       13.3222158742
  H        17.3669868115        7.6859786486       11.2106685673
  H        18.5156252841        5.8183782128       10.0109158713
  H        16.7538758903        5.7398036310       14.7714884672
  H        44.8280785590       32.1403778349       11.9771765762
  H        45.9374554919       30.3415325329       13.3065691736
  H        43.6829212350       27.3782191611       11.1522578801
  H        42.6001191382       29.1900934650        9.8096726671
  H        44.2306144375       29.4368494031       14.7688682245
  H        14.8513155891        8.5462891623       11.3633070526
  H        44.8999190743       32.2340820576        19.921607276438
  H        46.0248152277       30.4130611575        18.642078999238
  H        43.7636512457       27.4840850744        20.835218060038
  H        42.6458618227       29.3178047903        22.114318661738
  H        44.2686747415       29.4705863621        17.207956152438
  H        35.0820692446       26.6191811428        20.622197740638
  H        36.6052010207       35.1340457488        8.1805875065
  H        16.1434663285        3.0130893237        19.894092629438
  H        14.9739616441        4.8565283994        18.678328198538
  H        17.3967411253        7.7472838542        20.744478074938
  H        18.5437361439        5.8933327437        21.972075423538
  H        16.7649745497        5.7557326484        17.209057466038
  H        36.2787376124       34.4824268324        22.262961430038
  H        36.3811365573       34.2090533272        9.4996178843
  H        40.5806240610       33.2027842074        21.143294295338
  H        17.4707283442        1.9474870106        23.963950328738
  H        29.1961909507       19.3822446132       12.5180458404
  H        28.8113284635       18.7404721496        19.793194385738
  H        31.7728752103       15.7432687173        19.526051547238
  H        31.3945974188       15.6490076820       12.4906612405
  H        27.8352128251       17.7523270789       14.0480529840
  H        29.3777423818       15.3469601054       14.3224254357
  H        31.0677962405       20.2660535926        18.183691677538
  H        32.7048213941       17.3140133498        17.086544629338
  H        33.3622069349       18.8569180715       14.1481912591
  H        18.8530950868        0.8689813775       12.3350905957
  H        40.5280350524       35.2288949998        19.941790929438
  H        42.3244482825       34.4191996118        19.579955700438
  H        22.0874322426        0.6918093099       12.3518057692
  H        11.5969612924       18.7127940963       12.3824974652
  H        52.2647601040       18.4310799583        19.667072253538
  H        49.2550416194       16.4770106545        19.574419448738
  H        10.1501523897       15.7981694543       12.2927838195
  H        50.8498848317       17.6924188503        19.944034135138
  H        10.0460461741       17.3944408342       12.0519825372
  H        20.2141966740        0.0020107161       12.0420405611
  H        39.1838389785       36.1245001993        19.676259181238
 Ni        30.7806978676       17.7533928103        18.735766611938
 Ni        30.9898822480       16.4212726792       15.742408597238
 Ni        29.2832047375       17.8507817567        16.072178287338
 Ni        29.9732081856       17.3008437144       12.9965612848
  O        10.6499777150       14.3650962531        21.475643990038
  O        12.6131771047       14.6575533232        22.573680458638
  O        49.1480059558       16.8459109212        23.979567455138
  O        50.3502154101       20.9359786137        21.637927517638
  O        48.3485421810       20.5932827774        22.655727659038
  O        11.0517109965       17.0538822077        22.490554701938
  O        50.3210574094       20.8816332722       10.4068641338
  O        48.3467291079       20.5868033010        9.3271696996
  O        49.5436525117       18.2483967005       10.0683160014
  O        12.3590679725       18.6245661551        7.9997847822
  O        48.6933045373       14.1484841765        22.741119156938
  O         8.2099110571       14.2103628395        9.3225430093
  O        10.7353808821       14.5067271612       10.6643040424
  O        12.5717970416       14.5828285624        9.3284793763
  O        22.8443393914        2.0427677323        21.477117869338
  O        21.6051817300        3.5919351545        22.579704834838
  O        42.0583145974       34.1375107993        23.968856424238
  O        37.9817863139       33.1383022637        21.562450419738
  O        39.2182051279       31.5763430765        22.656645613038
  O        20.3084283460        1.0395657187        22.491905052238
  O        38.0245004000       33.1854563657       10.4152925992
  O        39.2192383528       31.5837440028        9.3263719589
  O        40.6522955329       33.7693413203       10.0602391462
  O        18.2553644177        1.3762574019        7.9967910865
  O        44.6222402156       35.1005273334        22.748570630438
  O        24.2053930398        0.0000492683        9.3208148472
  O        22.7529781698        2.0582619083       10.5840249701
  O        21.6242348447        3.5958841120        9.3423097534
  O        27.4924893665       18.7485754789        21.480791947338
  O        26.7594791621       16.9358748662        22.643880231038
  O        30.6646774252       19.4092904336        8.0162627933
  O        33.5849096813       16.2720876896        21.656718072738
  O        34.2745076206       18.1638891423        22.723843179238
  O        29.5733776900       17.0563082717        22.569697548638
  O        33.6093240849       16.3248674030       10.4082985975
  O        34.3036357806       18.2437662801        9.4041302843
  O        31.6560416266       18.3168831708       10.0848259122
  O        30.2955068046       15.1153859455        8.0818892499
  O        28.5516726290       21.0357154446        22.822295153938
  O        28.5139130980       20.9565014204        9.4047009932
  O        27.4612565394       18.6791280160       10.6586228068
  O        26.6943927582       16.9290871714        9.4124122072
  O        13.1492347248       18.6928809965       10.5875787560
  O        13.9197607233       16.9162628552        9.4053331994
  O        50.5961703770       19.3502591307        8.0207082195
  O        47.6835326754       16.3268849524       10.4171929981
  O        46.9515178702       18.1757506938        9.3248756654
  O        11.0697587048       17.0155595989        9.4896917427
  O        47.6769659139       16.3353103499        21.643375350638
  O        46.9273645551       18.2356617560        22.654415772738
  O        49.5687369021       18.3177500401        21.972164813338
  O        10.3187382837       15.1001394907        7.9970947907
  O        52.6707568859       21.0278668239        9.2418280730
  O        12.1468197931       20.8912121495        22.663044153538
  O        13.1074520312       18.6138158634        21.315580239438
  O        13.9569428030       16.9869681374        22.655249993038
  O        29.9931665096       14.4444779599       10.7325929013
  O        28.0879000810       14.6536331267        9.4972483986
  O        32.0784480313       16.8552050155        8.0626557846
  O        30.9650737307       20.9506811090       10.4067342667
  O        32.9466716226       20.6005099555        9.3348741837
  O        29.5638446535       17.0725750796        9.5714618033
  O        30.8765509880       20.9443277056        21.645830390138
  O        32.8798618405       20.5862679447        22.655225903938
  O        31.6829027373       18.2535740608        21.977125013338
  O        28.2892784652       18.6766123331        8.0668029407
  O        32.4920459431       14.2121351943        9.3249873088
  O        32.4044852389       14.2156708653        22.813754249138
  O        29.9171035878       14.4378502367        21.477027149738
  O        28.0367395557       14.5892750408        22.739035533838
  O        17.8891850835        1.9666570809       10.6628339596
  O        18.9561830903        3.5271490753        9.4079782767
  O        39.1686156416       34.1388297766        7.9972188714
  O        43.2802669833       33.0589964110       10.3317285673
  O        42.0346082295       31.5064374691        9.2416367934
  O        20.3176474111        1.0367368697        9.4802100480
  O        43.2760864102       33.1825663791        21.564682839138
  O        42.0052700693       31.5840920999        22.572752337938
  O        40.5790233497       33.7750018849        21.925739884938
  O        22.3673686029        1.3846593131        7.9980122833
  O        36.6727480280       35.0997672597        9.2332879156
  O        16.4455307760        0.0643180848        22.658116339538
  O        17.9364910913        2.0434119370        21.316130048838
  O        18.9190275381        3.5931442116        22.655693805138
  O        29.7381968436       18.8428385115        20.075707297538
  O        29.8654843814       18.9054285850       11.9904364408
  O        31.3073528644       16.4048194177        20.069763362838
  O        31.3512105576       16.4853004354       11.9839709829
  O        31.9334881397       16.7671334249        17.319328816938
  O        30.2439997274       15.7609786298       14.1545067796
  O        32.6139645761       18.6880996635       14.7443330250
  O        31.6847417786       19.5635687234        17.910406558238
  O        28.7250260665       18.0973039374       14.2455545085
  O        39.4567838113       35.2437923635        19.991767556338
  O        19.1408625882        0.0043692422       11.9905808289
  O        41.9695271982       35.1725822389        20.076925780238
  O        21.6910762555       -0.0695312714       11.8959522624
  O        51.3649670857       18.6142848671        19.995194626438
  O        10.7511888144       18.7471314299       11.9049125159
  O        50.0795835410       16.4128032181        20.081511988038
  O         9.5243512860       16.4830634228       11.9912135097
 Zr         9.2971412074       16.0526558211        22.172224729538
 Zr        49.8364182582       16.0066473636        9.7464222198
 Zr        22.0734557053        0.0301912544        22.178759970638
 Zr        42.4610965557       35.1539048306        9.8011395811
 Zr        29.6057415660       19.0829823461        22.236719538638
 Zr        29.5850700312       19.1828413960        9.8218799050
 Zr        11.0381679297       19.0518902484        9.8277954433
 Zr        11.0437852441       19.1548073869        22.240922208338
 Zr        31.3443261334       16.0931633007        9.8393486483
 Zr        31.3687411940       16.0048095956        22.246655562238
 Zr        18.6012898269       -0.0011269777        9.7632572905
 Zr        18.5066812048       -0.0072440125        22.203594496138
 Zr        12.3021201229       16.3234507330        23.980276238738
 Zr        48.6165936303       18.8330976107        8.0104125635
 Zr        20.3153745836        2.4737760614        23.980347422038
 Zr        40.6438590838       32.6875345281        23.968142683738
 Zr        28.3434098640       16.3321354795        8.0816761662
 Zr        32.6257336692       18.8351443866        8.0379631796
  H        31.8797039417       18.4258912685       14.1456282259
  H        31.6307588544       19.5024909679        16.934488003738
  H        29.4959570055       17.9247124830        17.611548613038
