     576
 i =      135, E =     -4780.0622664094
  C        11.8589169668       14.0536255570        21.731268311938
  C        12.4565485174       12.8907397724        21.012894229138
  C        11.7047487031       12.1713983708        20.071644399938
  C        12.2812054448       11.1091914107        19.379347079738
  C        13.6219337119       10.7398110480        19.606811553138
  C        14.3552331191       11.4438104055        20.579851951538
  C        13.7822636721       12.5087999873        21.271286399238
  C        14.2615112837        9.6491196613        18.833465777338
  C        14.2567627132        9.6569836633        17.411762967238
  C        13.7435475999       10.7591088393        16.657890331038
  C        49.1268703741       21.2331314593        21.869286885238
  C        48.5501160013       22.4012042199        21.142258130738
  C        49.3002435122       23.0687563132        20.161515362138
  C        48.7333361250       24.1079733081        19.428383651538
  C        47.4027188335       24.5094041443        19.656854980338
  C        46.6716324005       23.8602882302        20.670100078638
  C        47.2340831680       22.8153163389        21.399366469538
  C        46.7724408228       25.5870769476        18.859558630638
  C        46.7613941933       25.5575009078        17.437799491938
  C        47.2613732935       24.4424085379        16.694335646838
  C        14.8607063762        8.5706529958        16.698486032338
  C        14.8923984474        8.5972366824        19.510101203738
  C        49.1133315637       21.2034161498       10.1454137037
  C        48.5279827487       22.3648729578       10.8726267412
  C        49.2672184609       23.0255747683       11.8655144824
  C        48.6909430496       24.0602025741       12.5969415403
  C        47.3605570603       24.4570043866       12.3586796334
  C        46.6401299299       23.8121395807       11.3351456454
  C        47.2136548452       22.7761772585       10.6034149253
  C        46.7220825137       25.5319682329       13.1497032845
  C        46.7337005360       25.5283272715       14.5714087723
  C        47.2490862276       24.4290866925       15.3277866100
  C        40.6411778892       17.1940594623       15.3351451627
  C        40.6652204086       17.2358142468       12.5259984892
  C        11.8830168188       14.0865618450       10.2854628873
  C        12.4725147450       12.9108973150       10.9899089863
  C        11.7148753387       12.1773197278       11.9156058788
  C        12.2815526534       11.0949208809       12.5840603307
  C        13.6205489456       10.7216361874       12.3526023939
  C        14.3586957367       11.4376221177       11.3922635217
  C        13.7931797859       12.5187455541       10.7195483960
  C        14.2541390132        9.6247904192       13.1229315475
  C        14.2528995875        9.6446759876       14.5447683827
  C        13.7429894065       10.7535989759       15.2918470218
  C        22.5086092852        3.2450586365        21.737573699538
  C        23.2148495573        4.3498391474        21.026720516038
  C        24.2106768552        4.0686784840        20.079442611138
  C        24.8350879695        5.1066565355        19.392020483938
  C        24.4800422211        6.4493417708        19.630809003838
  C        23.5085535724        6.7219355677        20.611500897438
  C        22.8799511966        5.6857889791        21.297778571038
  C        25.0938648783        7.5554939202        18.859243367138
  C        25.0850876290        7.5491522640        17.437105734538
  C        24.3897924030        6.5526083901        16.681106240938
  C        38.3034587555       31.9298055837        21.838408461038
  C        37.5761738576       30.8396144081        21.127426401938
  C        36.6191326456       31.1420739948        20.146854630438
  C        36.0048578879       30.1207075118        19.427472330738
  C        36.3327453299       28.7720484969        19.667812182138
  C        37.2602257556       28.4770486338        20.684647900638
  C        37.8788490532       29.4971039846        21.402476514338
  C        35.7325822614       27.6790317763        18.870791133738
  C        35.7658263514       27.6923568065        17.449567006338
  C        36.4725942747       28.6939736347        16.712143089338
  C        25.7213955971        8.6170939176        16.725575666938
  C        25.6864016119        8.6286108466        19.537890095638
  C        38.3289430499       31.9624668500       10.1556359301
  C        37.6076636957       30.8884925187       10.8964491714
  C        36.6803535008       31.1956917007       11.9037338643
  C        36.0718794724       30.1758642463       12.6327134852
  C        36.3766761224       28.8239290895       12.3773817341
  C        37.2809860702       28.5267009577       11.3395791230
  C        37.8916514962       29.5429754723       10.6120123954
  C        35.7714663139       27.7235103706       13.1614427126
  C        35.7858335573       27.7150374231       14.5832411672
  C        36.4816701601       28.7051410561       15.3456305276
  C        46.1356387599       26.6209557717       15.2815173514
  C        46.0882021550       26.5803502462       12.4736208634
  C        22.4703269880        3.2591061267       10.2563834929
  C        23.1837018756        4.3674249810       10.9674378678
  C        24.1931555097        4.0787143075       11.9003665141
  C        24.8375257931        5.1065886096       12.5864437352
  C        24.4948676263        6.4560385810       12.3649190432
  C        23.5102246727        6.7379454644       11.3986529002
  C        22.8615766326        5.7102197972       10.7123015498
  C        25.1323279557        7.5514011424       13.1435582990
  C        25.1054957731        7.5464078385       14.5670463956
  C        24.3970292411        6.5528954038       15.3144654110
  C        26.6213002614       17.8640649072        21.771736131538
  C        25.3136361553       17.9098586104        21.049575794938
  C        25.0602012366       18.8989056489        20.085788770738
  C        23.8474973000       18.9198616146        19.399626483938
  C        22.8512091102       17.9553600393        19.654596243838
  C        23.1010917009       16.9896280311        20.648128958138
  C        24.3157604055       16.9627699979        21.331856746238
  C        21.5783182906       17.9406997975        18.889760093538
  C        21.5786332987       17.9170742025        17.467009483138
  C        22.7839196160       17.7898161301        16.706742901338
  C        34.4390675309       17.1954562310        21.912481876238
  C        35.7312815150       17.1506224832        21.170785255838
  C        35.9116939620       16.2243721233        20.132216169638
  C        37.0936864516       16.2175008737        19.397387595038
  C        38.1227959818       17.1369259174        19.679062533138
  C        37.9420199936       18.0441043276        20.740812824738
  C        36.7588675185       18.0560749883        21.474723510838
  C        39.3772823689       17.1547438465        18.894876944238
  C        39.3774057041       17.1977431621        17.473770823338
  C        38.1740951465       17.3469559374        16.714954737738
  C        20.3319143598       17.9359891536        16.758381623038
  C        20.3532544971       17.9446175898        19.571804000238
  C        34.4634299456       17.2918079892       10.2454707845
  C        35.7719688158       17.2236132419       10.9522449932
  C        36.0077085086       16.2380012342       11.9226872261
  C        37.2005059895       16.2301789162       12.6377380000
  C        38.1868453236       17.2062101600       12.3992221779
  C        37.9615113093       18.1632536030       11.3928291312
  C        36.7656876857       18.1766583268       10.6806877185
  C        39.4348028085       17.2301495504       13.1900372628
  C        39.4066029226       17.2358081048       14.6103149384
  C        38.1877987421       17.3625228551       15.3485511147
  C        35.1567455730       26.6353101186       15.2873598657
  C        35.1793623131       26.6540518973       12.4785318923
  C        26.5692737236       17.8278401794       10.3241723592
  C        25.2551470767       17.8733661171       11.0296928924
  C        24.9975891076       18.8711174571       11.9820991866
  C        23.7799813711       18.8978625196       12.6558240913
  C        22.7914056500       17.9259374963       12.4026182867
  C        23.0435964856       16.9533416675       11.4179266494
  C        24.2614705603       16.9249887027       10.7413723917
  C        21.5286341242       17.9075077747       13.1766366659
  C        21.5530847454       17.8987001102       14.5984192957
  C        22.7712795954       17.7810687097       15.3404478073
  C        14.0469917961       17.8290613700       10.2890531420
  C        15.3511457811       17.8867895384       11.0144817693
  C        15.6072345603       18.8903705503       11.9619662958
  C        16.8159956005       18.9119417410       12.6552283948
  C        17.8032016999       17.9327055409       12.4235763903
  C        17.5518476071       16.9534740517       11.4438447958
  C        16.3426145150       16.9273208134       10.7520104079
  C        19.0722899725       17.9163411731       13.1927370309
  C        19.0714268645       17.9148811148       14.6153008055
  C        17.8644994012       17.8177378718       15.3767757406
  C        46.8078504320       17.2229857254       10.1614310938
  C        45.5224135574       17.1757333776       10.9140016219
  C        45.3114566700       16.2061411366       11.9060929197
  C        44.1336535247       16.2066758307       12.6485488352
  C        43.1388375747       17.1771615150       12.4196486568
  C        43.3475563752       18.1268309125       11.4015618407
  C        44.5255433954       18.1301679728       10.6603931629
  C        41.8871105512       17.2049600540       13.2079663368
  C        41.8895533231       17.1984315884       14.6295109063
  C        43.0974865535       17.2767588119       15.3914534935
  C        20.3184230428       17.9257279692       15.3234178851
  C        20.2963145124       17.8960804706       12.5103949649
  C        46.7860988055       17.2290479242        21.883266668738
  C        45.4799768993       17.1209516764        21.175929262338
  C        45.2613495371       16.1288489431        20.208529976438
  C        44.0721186019       16.1068657667        19.484579562138
  C        43.0740132824       17.0735019307        19.713078034438
  C        43.2810839220       18.0318091969        20.722422099038
  C        44.4715962316       18.0608773493        21.440597001738
  C        41.8309940370       17.1098096950        18.913575550738
  C        41.8612938694       17.1486236987        17.493770448638
  C        43.0836462145       17.2517549257        16.757654154738
  C        46.1533887278       26.6373933766        16.716064078438
  C        46.1625007430       26.6561859037        19.525702346738
  C        14.0460970600       17.8323920465        21.698748000938
  C        15.3673600408       17.9085256410        21.009165044138
  C        15.6398079337       18.9242438257        20.080511322738
  C        16.8689524996       18.9632088129        19.426024220238
  C        17.8536014352       17.9855832978        19.674043911238
  C        17.5881079851       16.9992319885        20.641421427538
  C        16.3610248219       16.9597316220        21.299520633238
  C        19.1208533777       17.9614622857        18.904850900638
  C        19.0967523400       17.9368022078        17.483295793638
  C        17.8768646381       17.8274011229        16.742792415138
  C        28.8222158983       14.1530719641       10.4073079029
  C        28.2437517019       12.9667473299       11.1052393952
  C        28.9714777356       12.2371392863       12.0574153149
  C        28.3881891066       11.1433339687       12.6963173435
  C        27.0630458202       10.7534980326       12.4096913218
  C        26.3593349436       11.4653292611       11.4212793812
  C        26.9390027335       12.5565997385       10.7810942850
  C        26.3958755316        9.6617900377       13.1596726015
  C        26.3611240481        9.6880248367       14.5807572232
  C        26.8519727318       10.8014135976       15.3342908295
  C        32.1800959097       21.2427697303       10.1402115251
  C        32.7759092584       22.4085300889       10.8560504491
  C        32.0325684558       23.0762056222       11.8417934625
  C        32.6051430314       24.1132891113       12.5715346213
  C        33.9360331180       24.5098220521       12.3370239073
  C        34.6609848854       23.8606527111       11.3197782935
  C        34.0912072066       22.8183132934       10.5913088151
  C        34.5672791002       25.5827830381       13.1382493877
  C        34.5636178755       25.5519856008       14.5599088855
  C        34.0572574656       24.4360150741       15.2984408271
  C        25.7373307145        8.6115664153       15.2904960783
  C        25.7646007579        8.6112267513       12.4773469624
  C        32.1043097376       21.2299183996        21.868658559638
  C        32.6979969973       22.3786463109        21.124586543838
  C        31.9643726856       23.0398171971        20.127144286238
  C        32.5474202561       24.0673671459        19.389324505938
  C        33.8771745193       24.4644269311        19.631996928138
  C        34.5933691595       23.8166093227        20.656609747538
  C        34.0156718681       22.7827254915        21.388830724638
  C        34.5192562878       25.5445704323        18.848061860438
  C        34.5378582538       25.5332751735        17.426415361238
  C        34.0437314681       24.4277469007        16.665020396938
  C        40.6259070960       17.1712061924        16.768510322838
  C        40.5993569872       17.1281546836        19.576086953038
  C        28.7405446633       14.0632591329        21.808344976238
  C        28.1321152847       12.9148288228        21.072560217038
  C        28.8732133353       12.2045067302        20.115357182138
  C        28.2907494652       11.1500180790        19.415832894938
  C        26.9513141421       10.7773269924        19.648276531138
  C        26.2275203960       11.4735686103        20.634562580338
  C        26.8078780937       12.5294167352        21.335328709138
  C        26.3103809044        9.6897114180        18.869046593138
  C        26.3181572502        9.7029668267        17.447069495638
  C        26.8302007426       10.8096606954        16.699810543238
  C        18.1354811424        3.1811329564       10.3171561284
  C        17.4061009283        4.2783393699       11.0154969493
  C        16.3905749926        3.9999602611       11.9432623312
  C        15.7429027512        5.0399260276       12.6068001267
  C        16.0946625261        6.3836892965       12.3670002649
  C        17.0837386848        6.6532112831       11.4029010442
  C        17.7328254616        5.6158968875       10.7378089398
  C        15.4704521106        7.4913826544       13.1301295793
  C        15.4857348856        7.4905893815       14.5518473440
  C        16.1872660722        6.4969498443       15.3050104582
  C        42.9459033112       31.8595881483       10.0729848319
  C        43.6463551700       30.7720015622       10.8168687150
  C        44.5917607041       31.0933643051       11.8030609808
  C        45.1975368032       30.0878413679       12.5506873263
  C        44.8713409532       28.7347346335       12.3356936309
  C        43.9457451864       28.4203698596       11.3222682695
  C        43.3368552939       29.4254729165       10.5742528373
  C        45.4889202878       27.6554454428       13.1388786795
  C        45.4929834922       27.6810900923       14.5605695728
  C        44.8058703494       28.6891191885       15.3071942008
  C        14.8568553310        8.5631019041       15.2642620026
  C        14.8752509119        8.5632458181       12.4515912156
  C        42.9464276462       31.9616390862        21.798652420438
  C        43.6916947928       30.8855905291        21.085241090838
  C        44.6562212356       31.1914998953        20.112856970838
  C        45.2777842621       30.1719120048        19.395185359538
  C        44.9541051495       28.8215694758        19.632885479038
  C        44.0208190829       28.5239077926        20.643860789638
  C        43.3925134622       29.5406650527        21.355995329038
  C        45.5631571391       27.7241746842        18.847665007638
  C        45.5333983270       27.7175232523        17.426370695338
  C        44.8270828120       28.7077321533        16.673382103938
  C        35.1452528264       26.6247467189        16.721977705538
  C        35.1275821773       26.6040642612        19.531638955538
  C        18.1489480033        3.2470996764        21.696545949838
  C        17.4304642033        4.3439539967        20.987312920238
  C        16.4153835457        4.0527120853        20.063566134538
  C        15.7671026976        5.0833419811        19.388173681538
  C        16.1216617804        6.4286032762        19.610974054738
  C        17.1128884124        6.7119609883        20.568418500238
  C        17.7605279319        5.6830490746        21.248210866738
  C        15.4911648544        7.5242675015        18.838496828038
  C        15.4969233747        7.5075397883        17.417360234538
  C        16.1936036997        6.5058098479        16.670618622638
  H        10.6724875722       12.4652273126        19.894884311338
  H        11.6948656170       10.5504074484        18.653080093138
  H        15.3924392937       11.1696511077        20.761234760638
  H        14.3518344054       13.0724545229        22.006312209438
  H        13.3765270709       11.6312063731        17.191245807338
  H        50.3230507209       22.7489086575        19.976968081838
  H        49.3199025467       24.6234117696        18.670984726538
  H        45.6420416943       24.1608421651        20.853074963538
  H        46.6630310255       22.2898576018        22.161276910138
  H        47.6299392957       23.5760706289        17.236067391438
  H        14.8728176486        8.5885793375        20.598409807938
  H        50.2872742540       22.7027024684       12.0603564072
  H        49.2693949753       24.5756588237       13.3604011249
  H        45.6107643044       24.1094890936       11.1460433063
  H        46.6529053928       22.2540890330        9.8317492615
  H        47.6079175708       23.5520011739       14.7968694113
  H        40.6726407611       17.2045751255       11.4381613991
  H        48.6870206134       14.0949328717        23.789697240838
  H        10.6812577334       12.4660720257       12.0926844022
  H        11.6896812670       10.5242127397       13.2964402380
  H        15.3943257093       11.1601995589       11.2067452485
  H        14.3656742226       13.0885296864        9.9914602698
  H        13.3761761564       11.6222097453       14.7531907324
  H        47.9301538176       14.2184396408        9.7110001171
  H        47.7802889022       14.3739834522        22.484835879438
  H        49.0851606928       18.5529448556       10.8679096419
  H        10.4161910165       14.1342517850        7.9987500298
  H        24.4749874052        3.0300505195        19.893413066238
  H        25.6093891302        4.8868582466        18.660172677138
  H        23.2248321382        7.7548980168        20.802156238638
  H        22.1097955729        5.8884118600        22.038074164538
  H        23.8188935650        5.7975305083        17.213780625938
  H        36.3817147885       32.1849867872        19.950605037238
  H        35.2622537224       30.3584181626        18.668979003738
  H        37.5208762090       27.4383090393        20.876784273738
  H        38.6208613236       29.2776738606        22.166488594738
  H        37.0384556988       29.4432645311        17.258062696738
  H        25.7083154419        8.6102657549        20.626044502538
  H        36.4577187309       32.2395774474       12.1129280755
  H        35.3475439387       30.4190900395       13.4069251872
  H        37.5277449770       27.4868069315       11.1359795680
  H        38.6128725427       29.3190212294        9.8298452070
  H        37.0555205121       29.4626499077       14.8195968973
  H        46.1097592957       26.5877631521       11.3855881165
  H        44.6682152906       35.1160794814        23.803735615838
  H        24.4633917250        3.0390662484       12.0715010297
  H        25.6209165291        4.8713818965       13.3038854998
  H        23.2313156130        7.7736851794       11.2154239824
  H        22.0857788308        5.9295080557        9.9821739902
  H        23.8312375674        5.7985281207       14.7755187433
  H        44.9534558959       34.3902355403        9.6951684986
  H        44.9013323528       34.2068552140        22.480224257638
  H        40.6661697651       33.2094334283       10.8533015668
  H        23.1511153479        1.9580681103        8.0037034334
  H        25.8255896236       19.6464981604        19.889776827838
  H        23.6573283075       19.6928492802        18.658084925438
  H        22.3440318117       16.2357741910        20.854505265438
  H        24.5185171026       16.2028033393        22.082864275938
  H        23.7255191386       17.6678863088        17.234374617238
  H        35.1057791315       15.5301333850        19.905262680438
  H        37.2335231984       15.4915728554        18.599539688438
  H        38.7284770544       18.7629395135        20.961196637438
  H        36.6016810025       18.7716788150        22.278397874238
  H        37.2343109732       17.4764587940        17.244094661238
  H        20.3598643055       17.9863334017        20.659611906638
  H        35.2430913080       15.4883836197       12.1108763895
  H        37.3827425497       15.4655680833       13.3895866371
  H        38.7195692937       18.9206754593       11.2044361355
  H        36.5675724119       18.9323599484        9.9242941970
  H        37.2582720794       17.5033960953       14.8044144179
  H        35.1474983184       26.6824282933       11.3910203763
  H        28.4981697177       21.0877805488        23.873996387138
  H        25.7642704032       19.6169095027       12.1790606241
  H        23.5808262549       19.6757508016       13.3896986446
  H        22.2885741429       16.1962325921       11.2162729899
  H        24.4716046580       16.1623381693        9.9953191269
  H        23.7032097921       17.6528917580       14.7979495805
  H        28.9770322592       21.7347122229        9.7585760537
  H        29.1883078303       21.7242162993        22.555406186138
  H        32.1418073785       18.6543332707       10.9250502607
  H        27.3987743311       19.0672358692        8.0802616528
  H        14.8485499990       19.6492721011       12.1397134988
  H        17.0106532573       19.6965852523       13.3832239338
  H        18.3034905679       16.1895436064       11.2556795053
  H        16.1374614009       16.1579263589       10.0114524390
  H        16.9218033479       17.7024037480       14.8498056962
  H        46.0871103634       15.4659254531       12.0880159996
  H        43.9685099731       15.4468326267       13.4091913928
  H        42.5871750971       18.8840187445       11.2220101688
  H        44.7048099147       18.8771340174        9.8907636053
  H        44.0413322043       17.3882052837       14.8654068416
  H        20.2900330542       17.9257965868       11.4222574184
  H        46.0396566927       15.3918854238        20.024094344138
  H        43.9043479309       15.3394178963        18.732100310938
  H        42.5133067523       18.7807797329        20.904796721138
  H        44.6559010022       18.8210643944        22.195621471638
  H        44.0171560476       17.3429825656        17.305342081538
  H        46.1994115597       26.6827119749        20.613145821538
  H        52.7413308745       21.0626924210        8.1947027497
  H        14.8783991661       19.6769540054        19.888285043438
  H        17.0791125910       19.7538667089        18.708941016238
  H        18.3397335271       16.2382261787        20.841004632338
  H        16.1410396008       16.1851222594        22.030124696638
  H        16.9434058337       17.7195570866        17.286920408638
  H        52.3227938318       21.6734199018        22.283950688738
  H        52.0134052937       21.7021724932        9.4956410731
  H        49.0676518146       18.6075814603        21.193977192238
  H        13.2479754342       19.0158982871        23.967224984238
  H        29.9933854931       12.5359665314       12.2816590131
  H        28.9568324431       10.5777935863       13.4314400539
  H        25.3355059194       11.1783746825       11.1903549875
  H        26.3894739284       13.1230823799       10.0336759140
  H        27.2206702693       11.6715294487       14.7998609008
  H        31.0112687529       22.7550890413       12.0324229859
  H        32.0237567683       24.6305051034       13.3316589380
  H        35.6908948279       24.1579988401       11.1332058467
  H        34.6568595689       22.2916474361        9.8261346333
  H        33.7020222589       23.5669982544       14.7520888058
  H        25.8074235356        8.5931516006       11.3896363644
  H        30.9392283719       22.7298231275        19.937285310638
  H        31.9721248984       24.5813352567        18.622264364638
  H        35.6227842865       24.1120222161        20.848726581138
  H        34.5743985913       22.2595265410        22.161329826138
  H        33.6781444895       23.5523052402        17.194047915238
  H        40.5901781562       17.0677892200        20.662673643738
  H        32.5233877890       14.1567593507        8.2093868419
  H        29.9080670813       12.4883984814        19.937575584938
  H        28.8734741555       10.5970458760        18.682265221538
  H        25.1912043992       11.1996582702        20.821653579938
  H        26.2442880721       13.0832141968        22.082507307938
  H        27.1818554179       11.6853532040        17.237550965438
  H        33.2994116517       14.2009748600        22.436076922938
  H        33.4119114750       14.3354147745        9.6170397316
  H        32.1126269490       18.5346286974        21.161693064338
  H        30.2336880986       14.1913843252        8.0801753211
  H        16.1185731212        2.9634680369       12.1298001900
  H        14.9535971588        4.8205447729       13.3226178496
  H        17.3660042895        7.6860997009       11.2096090845
  H        18.5147121275        5.8186188812       10.0098218187
  H        16.7537875749        5.7395865351       14.7715099056
  H        44.8279010849       32.1404557720       11.9773700620
  H        45.9372990238       30.3416317344       13.3067203209
  H        43.6833270591       27.3782626998       11.1519673145
  H        42.6004510254       29.1900605520        9.8094107708
  H        44.2305497721       29.4369192058       14.7689027167
  H        14.8514965044        8.5466119438       11.3633688722
  H        44.8997340045       32.2341771909        19.921353428938
  H        46.0246291858       30.4131388608        18.641887424238
  H        43.7640529329       27.4841579481        20.835578383838
  H        42.6462076164       29.3178325936        22.114616922738
  H        44.2685587219       29.4706342429        17.207926563238
  H        35.0829719616       26.6180308145        20.619003055738
  H        36.6051053906       35.1341775139        8.1805524561
  H        16.1442818299        3.0131522897        19.893790545338
  H        14.9748488017        4.8564971231        18.678010589838
  H        17.3962863023        7.7474402537        20.745422202138
  H        18.5432089243        5.8935629041        21.973165739138
  H        16.7650699026        5.7555530143        17.208995671138
  H        36.2786330835       34.4827976360        22.262783853238
  H        36.3803853405       34.2094886832        9.4997238126
  H        40.5807653581       33.2031890131        21.143265921238
  H        17.4715665085        1.9478918076        23.964164370238
  H        28.9379563750       19.3134875021       12.4466827382
  H        29.6756945155       19.5751023090        19.539792138538
  H        30.8713071669       15.5043592808        19.669098823338
  H        31.1760696748       15.7222700571       12.9351709618
  H        28.1365576380       17.7570318840       14.6427322079
  H        29.6187648529       15.3540930948       14.5731556294
  H        31.0447635286       20.1665276284        17.471016679938
  H        32.7397694779       17.9991653363        17.031244062938
  H        28.4515260221       17.7834398038        18.093761510238
  H        31.9831521766       18.7283198213       14.8262181593
  H        18.8528505733        0.8691089599       12.3349982294
  H        40.5281117152       35.2292307498        19.941755785538
  H        42.3245441385       34.4192318726        19.580394741538
  H        22.0878729220        0.6919492020       12.3520054856
  H        11.5966996313       18.7131537333       12.3827640735
  H        52.2649024493       18.4312493724        19.666856897638
  H        49.2550433304       16.4772253072        19.574499922438
  H        10.1502115856       15.7981725019       12.2927435819
  H        50.8501318861       17.6924367342        19.944002754338
  H        10.0462379683       17.3944893667       12.0519368634
  H        20.2137747198        0.0022712358       12.0421834325
  H        39.1837461648       36.1246440696        19.676182469338
 Ni        31.0594914014       17.8554964119        18.821435422638
 Ni        31.2371769089       16.6240219814       15.985655475538
 Ni        29.5519173337       18.9612248298        16.073455784238
 Ni        30.3102245209       17.7384819837       13.3293600289
  O        10.6500411865       14.3650232363        21.475624369838
  O        12.6132517397       14.6574871235        22.573693356438
  O        49.1482281776       16.8458199544        23.979503860538
  O        50.3503084735       20.9359875527        21.637839017138
  O        48.3485866214       20.5934531760        22.655682749838
  O        11.0519770280       17.0537717873        22.490542571038
  O        50.3210888653       20.8817035934       10.4068728187
  O        48.3467952750       20.5868819837        9.3271795271
  O        49.5438901101       18.2484226987       10.0682755909
  O        12.3592593218       18.6246551494        7.9996991992
  O        48.6933248539       14.1484681594        22.741076206438
  O         8.2098454105       14.2104171484        9.3226526136
  O        10.7353874930       14.5066713039       10.6643359178
  O        12.5718793479       14.5828037569        9.3285170469
  O        22.8446678740        2.0437563385        21.476391852538
  O        21.6063251288        3.5930110524        22.578748007538
  O        42.0582986241       34.1377370511        23.969071376338
  O        37.9818800167       33.1379058495        21.562221561438
  O        39.2183303175       31.5763176306        22.656623085938
  O        20.3087172028        1.0404470642        22.492347446438
  O        38.0247518426       33.1859560857       10.4151288057
  O        39.2194334486       31.5840001636        9.3261104423
  O        40.6523421050       33.7696005946       10.0603192764
  O        18.2559619737        1.3762961004        7.9969170568
  O        44.6221233735       35.1006521954        22.748575963238
  O        24.2053578883        0.0001018925        9.3208623909
  O        22.7542089105        2.0596047355       10.5853675931
  O        21.6271293363        3.5990966994        9.3474317086
  O        27.4974495735       18.7520051892        21.484826627438
  O        26.7652554875       16.9345322581        22.643370013338
  O        30.6691666085       19.4020840293        8.0513025259
  O        33.5884764091       16.2778105565        21.660257722738
  O        34.2729011790       18.1708617082        22.729371462338
  O        29.5772603451       17.0609459563        22.569542527738
  O        33.5784952573       16.4090140128       10.5625217363
  O        34.3041569642       18.2386152881        9.4098506706
  O        31.6477388643       18.3136543469       10.1625449276
  O        30.3266544681       15.1584065519        8.0781434969
  O        28.5532642600       21.0342058042        22.823686229438
  O        28.5111855432       20.9594916795        9.4023238352
  O        27.4561023530       18.6793149103       10.6565859419
  O        26.6947457525       16.9286859216        9.4121593294
  O        13.1486603636       18.6929571087       10.5874278976
  O        13.9195671281       16.9163544955        9.4052322204
  O        50.5967046378       19.3503364393        8.0204560767
  O        47.6826821911       16.3274447247       10.4175324943
  O        46.9531302080       18.1765199460        9.3233511872
  O        11.0700147847       17.0153583738        9.4896400739
  O        47.6768824493       16.3351227641        21.643239325138
  O        46.9292540102       18.2355629396        22.655561382738
  O        49.5690702301       18.3177033883        21.972060610438
  O        10.3187017944       15.1000848349        7.9971239614
  O        52.6707610690       21.0278465628        9.2418104959
  O        12.1468408978       20.8912249742        22.663051591738
  O        13.1080892044       18.6136919248        21.315446880438
  O        13.9574088734       16.9872241144        22.655056216638
  O        29.9890001026       14.5733105786       10.7447784815
  O        28.0910072384       14.6581486100        9.4904595195
  O        32.1443587678       16.8520609808        8.0761577768
  O        30.9676127957       20.9530533270       10.4066932434
  O        32.9488572261       20.5976761827        9.3372120318
  O        29.5736264205       17.0765969097        9.5763517271
  O        30.8749507649       20.9480239894        21.650657179838
  O        32.8782897031       20.5872809762        22.654378585938
  O        31.6889554696       18.2471983413        21.988958939738
  O        28.2879829535       18.6770416387        8.0733260165
  O        32.4924149825       14.2180016323        9.3194206014
  O        32.4067133424       14.2130824861        22.820913187738
  O        29.9155146262       14.4362892530        21.474390560038
  O        28.0402544899       14.5875485241        22.741924392838
  O        17.8893472282        1.9667323129       10.6627362800
  O        18.9565427745        3.5272078226        9.4079897239
  O        39.1686636186       34.1389133916        7.9971896817
  O        43.2802153416       33.0590586349       10.3317117158
  O        42.0345628107       31.5064936086        9.2416260490
  O        20.3180487084        1.0371450982        9.4800739166
  O        43.2760599516       33.1826905603        21.564771970838
  O        42.0052684839       31.5841996091        22.572796044638
  O        40.5790367256       33.7752098134        21.925860457538
  O        22.3676097033        1.3853175285        7.9982900015
  O        36.6728180662       35.0998707377        9.2332251473
  O        16.4457665963        0.0643993598        22.658103201238
  O        17.9365903668        2.0434425351        21.316310685438
  O        18.9194281169        3.5931058973        22.655939363038
  O        29.9067699289       18.8271391977        20.126941270038
  O        29.7391781706       18.9846512236       11.9901173809
  O        31.3047877046       16.2691948515        20.085272452438
  O        31.5614355646       16.2558094440       12.1595410950
  O        32.2842308506       17.2254477144        17.410314364638
  O        28.4669291674       17.5134774163        17.151073794238
  O        30.4085655692       15.8939020324       14.4094560319
  O        31.9460981186       17.8100792738       14.5015568128
  O        30.3748788708       19.4892790242        17.655747825138
  O        28.7669658905       18.4698229751       14.4329381497
  O        39.4569542734       35.2440460924        19.991774129938
  O        19.1408016610        0.0045008356       11.9906057643
  O        41.9696316726       35.1728118833        20.077094902538
  O        21.6913715268       -0.0692152471       11.8959837124
  O        51.3651101210       18.6142984421        19.995154817738
  O        10.7510437511       18.7471718171       11.9049295274
  O        50.0796110466       16.4128128442        20.081493925938
  O         9.5244205310       16.4830777827       11.9911855515
 Zr         9.2976402084       16.0527112987        22.172331486138
 Zr        49.8366116349       16.0066744869        9.7462205512
 Zr        22.0731133644        0.0301740478        22.179071738238
 Zr        42.4611112661       35.1541298919        9.8015654474
 Zr        29.6080859042       19.0775993865        22.246713148938
 Zr        29.5701577313       19.1963823899        9.8455544233
 Zr        11.0387570581       19.0517399250        9.8277855288
 Zr        11.0446193042       19.1547187510        22.240549972638
 Zr        31.3653878174       16.1136004717        9.8014670878
 Zr        31.3874584260       16.0081098199        22.213648170938
 Zr        18.6012111512       -0.0010948781        9.7630246687
 Zr        18.5067318740       -0.0069710189        22.203657112438
 Zr        12.3029016324       16.3237296984        23.980128782938
 Zr        48.6177698299       18.8333685395        8.0100867513
 Zr        20.3165659890        2.4747995683        23.981662579738
 Zr        40.6438976433       32.6873340694        23.968128557838
 Zr        28.3393967582       16.3506109630        8.0760036355
 Zr        32.6289668716       18.8503460007        8.0359620584
  H        32.4775031395       16.4877239779       12.4165320581
  H        29.1668965921       16.8038197570        17.112253614938
  H        30.2926624317       19.9668305355       15.345294417538
  H        30.5651022973       15.7221452909        16.932305681638
