     572
 i =      325, E =     -4777.6843972469
  C        11.8587844133       14.0534951131        21.731331420238
  C        12.4563042966       12.8906039351        21.013002893338
  C        11.7045304298       12.1715043674        20.071535061738
  C        12.2809320872       11.1092973258        19.379213636938
  C        13.6215914230       10.7396943133        19.606772017538
  C        14.3548477839       11.4434789157        20.580012362638
  C        13.7819532594       12.5084673666        21.271497985338
  C        14.2611019474        9.6489981527        18.833398627538
  C        14.2563598288        9.6568846160        17.411701689738
  C        13.7431478620       10.7589965282        16.657809826638
  C        49.1269457314       21.2332158813        21.869457901338
  C        48.5502024227       22.4012007201        21.142378165938
  C        49.3002117259       23.0684765535        20.161344992138
  C        48.7332930763       24.1076768006        19.428207602638
  C        47.4027434586       24.5092910185        19.656806629038
  C        46.6718601257       23.8605156741        20.670429657538
  C        47.2342827864       22.8155544759        21.399719155138
  C        46.7724957531       25.5870365210        18.859602248138
  C        46.7613019123       25.5573219397        17.437844416838
  C        47.2612967139       24.4422599516        16.694342143338
  C        14.8603529732        8.5705676186        16.698455070638
  C        14.8919246971        8.5970909033        19.510066253038
  C        49.1132901985       21.2034489611       10.1453808721
  C        48.5279063635       22.3648258798       10.8725849846
  C        49.2671012974       23.0255251566       11.8655253566
  C        48.6907502058       24.0600940568       12.5969647583
  C        47.3603355665       24.4568486308       12.3587207173
  C        46.6399813114       23.8119882520       11.3351289225
  C        47.2135490825       22.7760694694       10.6033751517
  C        46.7218538421       25.5318371799       13.1497012675
  C        46.7335033593       25.5281417768       14.5714058526
  C        47.2489424262       24.4289295307       15.3277905803
  C        40.6342197702       17.1524464699       15.3205442813
  C        40.6534682967       17.1730133291       12.5115845594
  C        11.8830849454       14.0865174170       10.2854962871
  C        12.4724231050       12.9107811750       10.9897922594
  C        11.7148513179       12.1774249705       11.9157369229
  C        12.2814731305       11.0949961581       12.5841646164
  C        13.6203534632       10.7214127047       12.3524432198
  C        14.3584081298       11.4371561007       11.3918371589
  C        13.7929434778       12.5183041585       10.7191398339
  C        14.2539518833        9.6246554025       13.1228550028
  C        14.2525827825        9.6445592531       14.5446937018
  C        13.7426406909       10.7534787365       15.2917648802
  C        22.5126186418        3.2441334290        21.743231619038
  C        23.2294846662        4.3480570211        21.044321203738
  C        24.2263178381        4.0652815341        20.098737840038
  C        24.8562117226        5.1029849221        19.416749717338
  C        24.5049027253        6.4456214306        19.660076178238
  C        23.5364033758        6.7199284015        20.642859388738
  C        22.9017794813        5.6839973245        21.323315362938
  C        25.1135430235        7.5502018454        18.884133015238
  C        25.0852801644        7.5428484839        17.462711990738
  C        24.3797020109        6.5455420749        16.717149730938
  C        38.2993969193       31.9287082515        21.841293672138
  C        37.5612038375       30.8397120866        21.137940010538
  C        36.5975001153       31.1458146159        20.164747867638
  C        35.9712373010       30.1271560034        19.451809087338
  C        36.2936287257       28.7766196279        19.689459212838
  C        37.2266376134       28.4779199081        20.700295372738
  C        37.8569292154       29.4955064874        21.412464415938
  C        35.6866254320       27.6875521325        18.890377961038
  C        35.7255393215       27.7028155664        17.468794621438
  C        36.4376226934       28.7036683405        16.735096527838
  C        25.7105203435        8.6112192879        16.742474851138
  C        25.7133612853        8.6236567943        19.554596873138
  C        38.3304790751       31.9615474047       10.1592023954
  C        37.6131177777       30.8886523005       10.9072604504
  C        36.6817763935       31.1984726108       11.9103034587
  C        36.0723493966       30.1813434105       12.6427859805
  C        36.3794733011       28.8281772763       12.3959999271
  C        37.2909508665       28.5281766719       11.3649954481
  C        37.9023678767       29.5418875331       10.6338370175
  C        35.7660974377       27.7299289374       13.1784071263
  C        35.7658319733       27.7246894461       14.6008021444
  C        36.4558072521       28.7148096018       15.3686223345
  C        46.1354516800       26.6207499363       15.2815524151
  C        46.0878724945       26.5801836134       12.4736526802
  C        22.4609484171        3.2558057927       10.2578225383
  C        23.1552696345        4.3639088058       10.9810559278
  C        24.1573765870        4.0767494063       11.9215696601
  C        24.7860404482        5.1060697593       12.6179904033
  C        24.4328824292        6.4523362695       12.3965955975
  C        23.4537735267        6.7327502630       11.4246546546
  C        22.8203994551        5.7036473540       10.7287022170
  C        25.0653790960        7.5493664632       13.1708184804
  C        25.0612642985        7.5417180221       14.5936500626
  C        24.3665857857        6.5459142880       15.3505379276
  C        26.6226104933       17.8629691576        21.774609753638
  C        25.3138835463       17.9064285750        21.050257690838
  C        25.0585023036       18.8959402373        20.087883525838
  C        23.8454748058       18.9152248658        19.401640220338
  C        22.8514514793       17.9477767908        19.654779964438
  C        23.1039322147       16.9805901741        20.645950068938
  C        24.3186782705       16.9562905542        21.330243582638
  C        21.5782368255       17.9314263777        18.890047325438
  C        21.5776897969       17.9049334362        17.467469344038
  C        22.7829132317       17.7780321221        16.706870634238
  C        34.4393151091       17.1947956403        21.909703505038
  C        35.7307021855       17.1518633145        21.161251209538
  C        35.9359232660       16.1905088226        20.159355790038
  C        37.1158273665       16.1850799121        19.420573120338
  C        38.1233523664       17.1381156502        19.666738321038
  C        37.9207088727       18.0797185054        20.693203152638
  C        36.7371324258       18.0919134169        21.427416986238
  C        39.3786293732       17.1507002724        18.882934053838
  C        39.3756123192       17.1711546594        17.461742734638
  C        38.1695700111       17.2986270423        16.703098587438
  C        20.3312168104       17.9219706554        16.758568305438
  C        20.3529940149       17.9368009109        19.571773981438
  C        34.4700353088       17.2454695251       10.1856363358
  C        35.7728405011       17.1716332980       10.9096132648
  C        35.9884513725       16.1919512525       11.8899600474
  C        37.1758212425       16.1767591783       12.6164533806
  C        38.1752846423       17.1405693237       12.3809911130
  C        37.9663333199       18.0948252950       11.3682604983
  C        36.7768655606       18.1151400148       10.6453220034
  C        39.4223345843       17.1630530266       13.1756383977
  C        39.3980221208       17.1776328847       14.5963180705
  C        38.1797880142       17.2994967253       15.3365727804
  C        35.1279473392       26.6475549864       15.3016206341
  C        35.1787521906       26.6592334801       12.4920857440
  C        26.5729091064       17.8267207174       10.3248548669
  C        25.2575273857       17.8685057203       11.0326279319
  C        24.9885213160       18.8758660050       11.9714237186
  C        23.7711142838       18.8977621652       12.6465188961
  C        22.7923521994       17.9130889159       12.4045485536
  C        23.0552091105       16.9307607624       11.4328159868
  C        24.2740135991       16.9062221358       10.7572202566
  C        21.5282789964       17.8933781912       13.1771166779
  C        21.5520485900       17.8841706754       14.5985308032
  C        22.7704168943       17.7681597858       15.3406194655
  C        14.0467524008       17.8282124383       10.2892841742
  C        15.3508561398       17.8833110983       11.0152191699
  C        15.6081201444       18.8842020970       11.9651325286
  C        16.8169955928       18.9024558635       12.6583389829
  C        17.8030725069       17.9227424986       12.4239062448
  C        17.5505365903       16.9462513024       11.4418193286
  C        16.3411355710       16.9232771884       10.7502616565
  C        19.0721724195       17.9033168921       13.1928653873
  C        19.0708660594       17.8999614440       14.6153841270
  C        17.8639250276       17.8017306859       15.3768639882
  C        46.8066874026       17.2200843531       10.1594797484
  C        45.5185221544       17.1634417529       10.9073287001
  C        45.3124942135       16.1909514807       11.8977943119
  C        44.1321225570       16.1798633006       12.6359084878
  C        43.1291576268       17.1411493573       12.4041734456
  C        43.3325805498       18.0933036670       11.3873738915
  C        44.5136451515       18.1085487399       10.6506788970
  C        41.8765120141       17.1586585537       13.1919190026
  C        41.8815815881       17.1617915133       14.6134826327
  C        43.0900159154       17.2551119118       15.3732530161
  C        20.3176592116       17.9104893831       15.3236799669
  C        20.2963506962       17.8830888354       12.5104182246
  C        46.7859283103       17.2313767910        21.879725525938
  C        45.4820070095       17.1280897080        21.165887281238
  C        45.2621625766       16.1350514543        20.199549755338
  C        44.0738712583       16.1142929542        19.473681397038
  C        43.0768309769       17.0834125807        19.697762924938
  C        43.2862863198       18.0447959782        20.703846611838
  C        44.4757421763       18.0722318289        21.424397687538
  C        41.8320283374       17.1144036967        18.899702262938
  C        41.8590233514       17.1377234797        17.479098496938
  C        43.0794087197       17.2410009869        16.739736775338
  C        46.1532915642       26.6372108968        16.716103528838
  C        46.1625354245       26.6561414268        19.525744075238
  C        14.0458093555       17.8317033568        21.698558948238
  C        15.3670034126       17.9057260974        21.008462029138
  C        15.6403553477       18.9194962377        20.078032150338
  C        16.8695517541       18.9560082630        19.423483087638
  C        17.8532381601       17.9780256441        19.673673455538
  C        17.5869027998       16.9935770805        20.642635825038
  C        16.3596709096       16.9564136011        21.300539225838
  C        19.1205348325       17.9515155635        18.904712308138
  C        19.0961348968       17.9234943652        17.483324150838
  C        17.8763415810       17.8123190929        16.742847837238
  C        28.8103672544       14.0919601740       10.3906313237
  C        28.1971446924       12.9173477811       11.0783524373
  C        28.9257936465       12.1662737499       12.0123913882
  C        28.3276098787       11.0908068496       12.6645061859
  C        26.9866841535       10.7419144405       12.4057229355
  C        26.2792612426       11.4730833271       11.4347736503
  C        26.8753584850       12.5489705061       10.7814271584
  C        26.3199474154        9.6605850065       13.1672659435
  C        26.3134534362        9.6839367581       14.5883438830
  C        26.8244880630       10.7934219279       15.3340851508
  C        32.1791028599       21.2391919285       10.1480287689
  C        32.7739906751       22.4058480277       10.8688348498
  C        32.0201708525       23.0960006585       11.8305509441
  C        32.5897988478       24.1365228711       12.5585892905
  C        33.9295205430       24.5154559295       12.3460537840
  C        34.6664653569       23.8441272496       11.3523592383
  C        34.0987924181       22.7982498828       10.6263868058
  C        34.5565428629       25.5914584158       13.1482561320
  C        34.5382742446       25.5651312955       14.5698958746
  C        34.0199649529       24.4526733926       15.3054272834
  C        25.7026546276        8.6070802872       15.3077503664
  C        25.6795813550        8.6120458181       12.4942601076
  C        32.0845501857       21.2071759030        21.869767109638
  C        32.6589348892       22.3672806178        21.123467348038
  C        31.9234937580       23.0232147996        20.124276412638
  C        32.4986727198       24.0603053431        19.391744302538
  C        33.8232142830       24.4722165497        19.639751849138
  C        34.5403240995       23.8298286120        20.667343481738
  C        33.9702447610       22.7886964093        21.394827126538
  C        34.4639992772       25.5569972749        18.859542683938
  C        34.4897714126       25.5479352924        17.437551621938
  C        33.9958528004       24.4451398591        16.671807076238
  C        40.6225168373       17.1445336936        16.754458522238
  C        40.6009228405       17.1388035136        19.563985047738
  C        28.7485276179       14.0669221442        21.810440669238
  C        28.1390682469       12.9182645049        21.072770266938
  C        28.8787080134       12.2201403054        20.106122079038
  C        28.3009066417       11.1625164573        19.407470058438
  C        26.9671853846       10.7767244700        19.650424198438
  C        26.2444233618       11.4627878786        20.644233008238
  C        26.8209874625       12.5208100350        21.344792084238
  C        26.3273122890        9.6851177126        18.877238761038
  C        26.3181506197        9.6967845752        17.455326062638
  C        26.8242352214       10.8010024820        16.699940819238
  C        18.1354366024        3.1809967524       10.3171715652
  C        17.4061821034        4.2782385573       11.0157725898
  C        16.3904587297        3.9999046345       11.9433010502
  C        15.7427509957        5.0398975952       12.6067854658
  C        16.0947258773        6.3836117385       12.3671171551
  C        17.0840959317        6.6531237145       11.4033354306
  C        17.7331662872        5.6157596218       10.7382962483
  C        15.4703943328        7.4913171236       13.1301437640
  C        15.4856159526        7.4905967155       14.5518580855
  C        16.1871677140        6.4969829663       15.3050363400
  C        42.9458546917       31.8595588756       10.0728796514
  C        43.6462214482       30.7718664751       10.8168419508
  C        44.5915766286       31.0931975120       11.8030764781
  C        45.1972611690       30.0876465774       12.5507577045
  C        44.8710311433       28.7345603301       12.3357279439
  C        43.9454126845       28.4202222373       11.3223177637
  C        43.3366226978       29.4253634195       10.5742530840
  C        45.4886221753       27.6552815078       13.1389401184
  C        45.4926955097       27.6808542239       14.5606381357
  C        44.8056085902       28.6888952921       15.3072730981
  C        14.8565908409        8.5630460980       15.2642347819
  C        14.8751710670        8.5631286456       12.4515644752
  C        42.9464681425       31.9616377215        21.798778262938
  C        43.6917590229       30.8854876980        21.085365420638
  C        44.6562242397       31.1914146576        20.112941811038
  C        45.2777614724       30.1718401611        19.395206946138
  C        44.9541529998       28.8215062704        19.632985635238
  C        44.0208453795       28.5238181362        20.643925564138
  C        43.3925799745       29.5405765035        21.356114984538
  C        45.5631530714       27.7241053527        18.847709062238
  C        45.5332860918       27.7173375982        17.426411796338
  C        44.8269233817       28.7075413220        16.673458789638
  C        35.1053139710       26.6377473767        16.736678463438
  C        35.0739597611       26.6140369711        19.546927537838
  C        18.1486355914        3.2470196597        21.696363653038
  C        17.4300575000        4.3438366640        20.987109979338
  C        16.4147863071        4.0525852638        20.063593354338
  C        15.7664817441        5.0832315040        19.388234187038
  C        16.1212533217        6.4284529060        19.610901460638
  C        17.1127229214        6.7118226780        20.568067624338
  C        17.7603934118        5.6828926303        21.247810725438
  C        15.4907326769        7.5241482800        18.838475124838
  C        15.4965719471        7.5074684633        17.417343207838
  C        16.1934009419        6.5058153078        16.670641215538
  H        10.6723307733       12.4654801308        19.894674011238
  H        11.6946056893       10.5506612661        18.652823824038
  H        15.3919795360       11.1691165672        20.761527978638
  H        14.3515301698       13.0719064875        22.006680992238
  H        13.3761086208       11.6311013035        17.191135411038
  H        50.3229189880       22.7484361183        19.976588189638
  H        49.3197585679       24.6229141587        18.670593615138
  H        45.6423846121       24.1613168436        20.853642627438
  H        46.6633283592       22.2903307843        22.161866296738
  H        47.6298812123       23.5759064170        17.236034682138
  H        14.8723590683        8.5884024005        20.598375515038
  H        50.2871547076       22.7026905188       12.0604375878
  H        49.2691345034       24.5755516344       13.3604742604
  H        45.6105977160       24.1092653394       11.1460126588
  H        46.6527817327       22.2539287117        9.8317597217
  H        47.6077905596       23.5518426128       14.7968862056
  H        40.6602432260       17.1364295544       11.4239200415
  H        48.6870696963       14.0949960757        23.789818128238
  H        10.6813202162       12.4663674092       12.0930022146
  H        11.6896442621       10.5244462095       13.2967052651
  H        15.3939194692       11.1594538132       11.2060662760
  H        14.3653805956       13.0878409807        9.9908160811
  H        13.3758156821       11.6220923154       14.7531253538
  H        47.9302528578       14.2182578847        9.7109582324
  H        47.7800704415       14.3736216443        22.484982736438
  H        49.0844446877       18.5526922946       10.8676264895
  H        10.4161894801       14.1342614907        7.9986959944
  H        24.4850474215        3.0260106636        19.908702877738
  H        25.6292513942        4.8835793901        18.683480846238
  H        23.2581008794        7.7536680469        20.837123964738
  H        22.1317753244        5.8864329264        22.063769986638
  H        23.8173492165        5.7899674668        17.257956432438
  H        36.3644020881       32.1897208277        19.968647785838
  H        35.2246991072       30.3688430205        18.698415159638
  H        37.4832904670       27.4380388765        20.891782332738
  H        38.6031099199       29.2719988983        22.171308979038
  H        37.0006567160       29.4527457865        17.284180003538
  H        25.7478678301        8.6070854305        20.642430803138
  H        36.4552554319       32.2428527792       12.1127987991
  H        35.3437730983       30.4280797141       13.4119170634
  H        37.5412853661       27.4878723251       11.1678404742
  H        38.6273192803       29.3144687547        9.8560572022
  H        37.0338269501       29.4721025226       14.8467272821
  H        46.1094136865       26.5876295840       11.3856195281
  H        44.6683723383       35.1162125007        23.803702895238
  H        24.4345166897        3.0382764277       12.0881470616
  H        25.5668769786        4.8763551620       13.3398522103
  H        23.1695590070        7.7675405366       11.2445531119
  H        22.0487675204        5.9174823898        9.9927247537
  H        23.7934993895        5.7912510914       14.8197267906
  H        44.9539697747       34.3904959242        9.6952367629
  H        44.9019396164       34.2068357032        22.480445537038
  H        40.6664184822       33.2093728009       10.8533259700
  H        23.1504448408        1.9579203043        8.0053758739
  H        25.8247323593       19.6431879214        19.893637635438
  H        23.6521059918       19.6896559162        18.662334010738
  H        22.3489930261       16.2241317376        20.850692501038
  H        24.5240830390       16.1957193445        22.080020423238
  H        23.7229350406       17.6587361952        17.237686615338
  H        35.1554636839       15.4567225782        19.971739279738
  H        37.2754818925       15.4314622199        18.652432835338
  H        38.6911984765       18.8231816632        20.887004858738
  H        36.5631511616       18.8325854374        22.204593310338
  H        37.2312377876       17.4246820456        17.235428662238
  H        20.3596292550       17.9808232611        20.659486279338
  H        35.2066554610       15.4599307434       12.0782641421
  H        37.3432946294       15.4143392105       13.3741080040
  H        38.7326033302       18.8445841869       11.1823780701
  H        36.5922733232       18.8690581063        9.8837442208
  H        37.2493603962       17.4251730015       14.7902877253
  H        35.1591847548       26.6839473585       11.4041775242
  H        28.5060876780       21.0750087686        23.950999057438
  H        25.7459595231       19.6354281641       12.1516715505
  H        23.5618549671       19.6832013855       13.3696115282
  H        22.3076074760       16.1640270231       11.2398790260
  H        24.4931334315       16.1365856196       10.0209110121
  H        23.7008961514       17.6414346748       14.7953429129
  H        29.0130336951       21.7185796640        9.7530521140
  H        29.1670032703       21.7388823369        22.615096208338
  H        32.0784670429       18.5555964799       10.9921625771
  H        27.4024192133       19.0686534194        8.0828199981
  H        14.8503311669       19.6435297017       12.1449315280
  H        17.0126488502       19.6849209381       13.3884017990
  H        18.3012794916       16.1819895155       11.2514115894
  H        16.1348614184       16.1559628807       10.0078753895
  H        16.9213695483       17.6855080527       14.8498358527
  H        46.0942278639       15.4577760356       12.0820308828
  H        43.9715645441       15.4182695080       13.3958002610
  H        42.5655507377       18.8431439239       11.2052114015
  H        44.6884871409       18.8577481978        9.8821404416
  H        44.0321767906       17.3689254071       14.8446988261
  H        20.2904326460       17.9134943621       11.4222969837
  H        46.0382142740       15.3948602272        20.018410896738
  H        43.9056380535       15.3446499606        18.723534466538
  H        42.5207202765       18.7967221240        20.883431564038
  H        44.6601834680       18.8340157706        22.177813000338
  H        44.0134610449       17.3426866993        17.284665934238
  H        46.1995500279       26.6827446123        20.613181971238
  H        52.7412681656       21.0626525194        8.1946988305
  H        14.8796204326       19.6725102715        19.884316938338
  H        17.0804990879       19.7449480338        18.704746699438
  H        18.3378521480       16.2323094206        20.843774570938
  H        16.1387507569       16.1832619587        22.032390293338
  H        16.9430079832       17.7041261091        17.287153395438
  H        52.3226740884       21.6733508449        22.283991626338
  H        52.0133356703       21.7021091995        9.4956777003
  H        49.0678268696       18.6078142611        21.193812052138
  H        13.2477858857       19.0160242815        23.967218241538
  H        29.9595616875       12.4395190451       12.2117231439
  H        28.8942641180       10.5070582644       13.3867880733
  H        25.2431509179       11.2132869211       11.2275621968
  H        26.3275699234       13.1343610699       10.0469605108
  H        27.1910407303       11.6599478743       14.7921778018
  H        30.9902460557       22.7921004949       12.0013490809
  H        31.9995612404       24.6710469723       13.2997872376
  H        35.7033543183       24.1268913544       11.1822553211
  H        34.6731866659       22.2546507860        9.8797186692
  H        33.6644297758       23.5858720625       14.7557193202
  H        25.7053535560        8.5949710274       11.4061100456
  H        30.9025034169       22.7036090581        19.927937104238
  H        31.9199960613       24.5699543602        18.624328860738
  H        35.5654562711       24.1357161832        20.865971914738
  H        34.5301315593       22.2716887501        22.170574035938
  H        33.6217389562       23.5719875289        17.198558889338
  H        40.5925611194       17.0938928512        20.651356023238
  H        32.5059208585       14.1490581187        8.2492249545
  H        29.9078832213       12.5205490221        19.922435989538
  H        28.8825450064       10.6160966904        18.668083876138
  H        25.2124207668       11.1778003080        20.838496890338
  H        26.2600627355       13.0661487686        22.100164581938
  H        27.1896077811       11.6733776934        17.233779257338
  H        33.3099595619       14.2273803974        22.459325674438
  H        33.4086069372       14.4153769640        9.5943899116
  H        32.1161481340       18.5002775922        21.178701544538
  H        30.2198639211       14.1912761136        8.0781096716
  H        16.1183639027        2.9634122485       12.1297083686
  H        14.9532922198        4.8205585631       13.3224482746
  H        17.3666040444        7.6859819660       11.2102366914
  H        18.5152283269        5.8184100013       10.0104731277
  H        16.7538264945        5.7397098920       14.7715507585
  H        44.8277328017       32.1402932143       11.9773641743
  H        45.9370203302       30.3414406986       13.3067942033
  H        43.6829512544       27.3781253094       11.1520087274
  H        42.6002414758       29.1900106247        9.8093652633
  H        44.2302594092       29.4366709833       14.7689746168
  H        14.8515239564        8.5464325983       11.3633404333
  H        44.8996695678       32.2341002753        19.921381532338
  H        46.0245804477       30.4130798838        18.641885712338
  H        43.7640823801       27.4840752472        20.835685508738
  H        42.6462330128       29.3177946143        22.114713987238
  H        44.2684494097       29.4704521598        17.208044435738
  H        35.0264722084       26.6260401050        20.634226021938
  H        36.6052716573       35.1340835142        8.1806776695
  H        16.1436234615        3.0130211427        19.893931045838
  H        14.9741034445        4.8564322777        18.678194745338
  H        17.3963705934        7.7472684646        20.744868826038
  H        18.5433889776        5.8933491221        21.972444336038
  H        16.7648801133        5.7556170478        17.209089077038
  H        36.2787443566       34.4824090058        22.262935898238
  H        36.3810704559       34.2090213609        9.4994845082
  H        40.5796420920       33.2022162305        21.143571791738
  H        17.4709780273        1.9473775110        23.963939167238
  H        29.1135748344       19.2808442839       12.4951829272
  H        29.7913153107       19.7400801898        19.579051002538
  H        31.8514237300       15.8191932979        19.591904801838
  H        31.3371160176       15.5718982560       12.5548018306
  H        28.1484050950       17.9117083362       14.5824630800
  H        29.4115825400       15.4172617019       14.5770233483
  H        31.6859866330       20.0067243343        17.412659827038
  H        33.1049537622       16.9317967670        17.477986607638
  H        28.7810289620       16.8240334603        17.399633722638
  H        32.4591043619       18.3830233558       15.5773643015
  H        18.8542790485        0.8691146206       12.3353692274
  H        40.5281092961       35.2289122098        19.941826034238
  H        42.3242156307       34.4189791154        19.580135298138
  H        22.0878051735        0.6923627680       12.3513868508
  H        11.5973214917       18.7128971606       12.3824018416
  H        52.2650057657       18.4311759253        19.667035190838
  H        49.2551822570       16.4770246142        19.574327676638
  H        10.1508779444       15.7980815798       12.2924779153
  H        50.8501650094       17.6924134176        19.944009788438
  H        10.0465910494       17.3944693059       12.0519389304
  H        20.2159069210        0.0024677681       12.0418149115
  H        39.1838148591       36.1244157110        19.676237774738
 Ni        30.8602353434       17.7704872646        18.741252126738
 Ni        31.1565598846       16.3276785302        16.150271101438
 Ni        30.0543775212       18.7743973893       15.909231824738
 Ni        30.0589213467       17.3513362321       13.1604957372
  O        10.6499585841       14.3650912064        21.475611267638
  O        12.6131740824       14.6575114348        22.573667768038
  O        49.1481075430       16.8458746527        23.979480313038
  O        50.3503302205       20.9358072215        21.637815148238
  O        48.3485997668       20.5933598245        22.655661857038
  O        11.0517851043       17.0538268689        22.490496471238
  O        50.3210624947       20.8816691966       10.4068669789
  O        48.3467764649       20.5868234700        9.3271591551
  O        49.5438680268       18.2484287769       10.0682899336
  O        12.3591385306       18.6246429830        7.9996885676
  O        48.6932597147       14.1485696863        22.741086045638
  O         8.2099157512       14.2103284219        9.3225512362
  O        10.7354265935       14.5066895137       10.6643258415
  O        12.5718134010       14.5828494997        9.3284691720
  O        22.8444835017        2.0427132852        21.477102882838
  O        21.6057458645        3.5923334710        22.579252392038
  O        42.0581952187       34.1373617703        23.968752865438
  O        37.9813768930       33.1370752527        21.562295252138
  O        39.2175581781       31.5754160346        22.655953716138
  O        20.3084095731        1.0396117817        22.491948379438
  O        38.0245598789       33.1853645366       10.4154915924
  O        39.2187743363       31.5834430469        9.3270014643
  O        40.6522508796       33.7692772900       10.0601707623
  O        18.2555991019        1.3761119617        7.9967819799
  O        44.6222660252       35.1005442946        22.748538037638
  O        24.2054084734        0.0000031089        9.3207707379
  O        22.7529745251        2.0575829133       10.5837687572
  O        21.6245277247        3.5961235611        9.3428555673
  O        27.4955964773       18.7527385702        21.487150494038
  O        26.7648221485       16.9330725359        22.644180942838
  O        30.6641949674       19.4019266857        8.0608427221
  O        33.5893583429       16.2738450240        21.657283066238
  O        34.2753026369       18.1678537014        22.725110671438
  O        29.5733720318       17.0636151014        22.566332781138
  O        33.6100793511       16.3273751379       10.4157193612
  O        34.3051362441       18.2441683199        9.4074203257
  O        31.6566226726       18.3106984650       10.1515904083
  O        30.3211824011       15.1570498290        8.0877728180
  O        28.5544634180       21.0319247126        22.886100395338
  O        28.5135362451       20.9564714612        9.4138292694
  O        27.4574349790       18.6796947108       10.6585979843
  O        26.6943492524       16.9286133077        9.4131484544
  O        13.1491215282       18.6927826759       10.5875774612
  O        13.9193036224       16.9161404496        9.4049253697
  O        50.5964641287       19.3502901531        8.0204563196
  O        47.6835885946       16.3270151644       10.4173203113
  O        46.9524560796       18.1760258188        9.3240756190
  O        11.0699515748       17.0154671561        9.4896602819
  O        47.6759082947       16.3356088381        21.642733663338
  O        46.9281800136       18.2358633792        22.654965094538
  O        49.5688520920       18.3177280173        21.972074769938
  O        10.3186957298       15.1000976513        7.9970675210
  O        52.6708009357       21.0278879843        9.2418223892
  O        12.1468370485       20.8911929572        22.663044630638
  O        13.1083043813       18.6135942929        21.315399157638
  O        13.9571879835       16.9870522478        22.655247022238
  O        29.9942087705       14.4418272981       10.7301494732
  O        28.0889679678       14.6536429984        9.4954466491
  O        32.1370898342       16.8531409882        8.0833670710
  O        30.9640439185       20.9504693976       10.4116167388
  O        32.9454980023       20.6041885151        9.3401174750
  O        29.5681841426       17.0720490542        9.5740688265
  O        30.8572955354       20.9007502988        21.649657369538
  O        32.8732190984       20.5870994816        22.655093464538
  O        31.6849771836       18.2552415140        22.011937410538
  O        28.2892800978       18.6736565006        8.0741715914
  O        32.4918806534       14.2140732589        9.3294540299
  O        32.4056144778       14.2144427707        22.814989554938
  O        29.9194991253       14.4373956945        21.481692632138
  O        28.0388770843       14.5888374148        22.742817270438
  O        17.8892791881        1.9665709482       10.6627645429
  O        18.9562252192        3.5271107140        9.4079621531
  O        39.1685737099       34.1387002402        7.9971910964
  O        43.2801879502       33.0589681805       10.3316634744
  O        42.0344460919       31.5064681300        9.2416243314
  O        20.3176907189        1.0367858273        9.4800750657
  O        43.2760716338       33.1825868971        21.564709259738
  O        42.0052304421       31.5841833109        22.572789251738
  O        40.5789072537       33.7749048094        21.925678040538
  O        22.3673815565        1.3846007476        7.9980091685
  O        36.6728274277       35.0997355329        9.2333236914
  O        16.4456663551        0.0642405597        22.658065952438
  O        17.9365146465        2.0433509198        21.316208242238
  O        18.9190636536        3.5930577104        22.655749040338
  O        29.8685471706       18.9028305186        20.070110580638
  O        29.8240741229       18.8353865110       11.9933889304
  O        31.3021422288       16.4119080852        20.138883307638
  O        31.2989517434       16.4144396618       12.0630523422
  O        32.2283637397       16.5577475159        17.662027530538
  O        29.6528309814       17.2200375005        17.231761795438
  O        30.2507867200       15.8973710851       14.4856795018
  O        31.6945887358       17.9486533396       15.1558140488
  O        30.8732775355       19.4854833819        17.499245967838
  O        28.9695601471       18.3890410923       14.3780478390
  O        39.4568356535       35.2437279690        19.991753686738
  O        19.1422682085        0.0047535957       11.9904448330
  O        41.9695458768       35.1726218677        20.076901287538
  O        21.6914422564       -0.0692167639       11.8959424186
  O        51.3651821328       18.6142670864        19.995208295238
  O        10.7514850326       18.7471311701       11.9049063137
  O        50.0796721581       16.4127889674        20.081479214938
  O         9.5249174517       16.4830041177       11.9912870181
 Zr         9.2973560496       16.0527049435        22.172279223938
 Zr        49.8367714557       16.0065928479        9.7463195164
 Zr        22.0733762509        0.0301574466        22.178649822838
 Zr        42.4610644310       35.1537687640        9.8008802899
 Zr        29.6014267762       19.0830025485        22.245832467338
 Zr        29.5839696883       19.1704490687        9.8448553723
 Zr        11.0385762329       19.0518303817        9.8277442411
 Zr        11.0443975696       19.1547285456        22.240698747238
 Zr        31.3476584475       16.1043126755        9.8732884153
 Zr        31.3862641901       16.0155269334        22.269400608638
 Zr        18.6013591078       -0.0010950729        9.7634831031
 Zr        18.5067561707       -0.0074188823        22.203518329238
 Zr        12.3025794588       16.3235660187        23.980057739338
 Zr        48.6173111643       18.8332496226        8.0102357023
 Zr        20.3154988726        2.4739450365        23.980300380538
 Zr        40.6435518681       32.6873461749        23.967890378538
 Zr        28.3411991720       16.3386954260        8.0783674800
 Zr        32.6264703011       18.8341793211        8.0565041644
