     566
 i =      129, E =     -4712.2764790406
  C        11.8588420074       14.0535017256        21.731323259938
  C        12.4563083205       12.8905925486        21.013036512738
  C        11.7046250439       12.1716868197        20.071345690638
  C        12.2809974690       11.1094875541        19.379001096538
  C        13.6215586908       10.7396449193        19.606771136538
  C        14.3547131365       11.4432023792        20.580259054638
  C        13.7818342845       12.5081788397        21.271768464938
  C        14.2610409989        9.6489543518        18.833381531338
  C        14.2562994211        9.6568536597        17.411685272338
  C        13.7432230324       10.7590208921        16.657782938138
  C        49.1268297709       21.2332982130        21.869506581438
  C        48.5500784621       22.4012223457        21.142450555238
  C        49.3000616792       23.0684056102        20.161316221438
  C        48.7331339120       24.1075390529        19.428110755738
  C        47.4026537514       24.5093393458        19.656844924438
  C        46.6717757693       23.8606254588        20.670525980238
  C        47.2342166352       22.8157317495        21.399895020238
  C        46.7723829267       25.5869865862        18.859541469838
  C        46.7613980722       25.5573657565        17.437779783338
  C        47.2614146593       24.4423183723        16.694272036838
  C        14.8601662807        8.5704721655        16.698427950538
  C        14.8917898891        8.5969944046        19.510036854838
  C        49.1133055253       21.2035124794       10.1453640016
  C        48.5279878035       22.3649197458       10.8724442907
  C        49.2671121130       23.0254267702       11.8655830892
  C        48.6907880241       24.0600028383       12.5970133281
  C        47.3604734714       24.4570067255       12.3585668756
  C        46.6402282678       23.8123898708       11.3347283393
  C        47.2137709554       22.7764754818       10.6029592680
  C        46.7219499032       25.5318962130       13.1496238469
  C        46.7336450211       25.5282057712       14.5713299919
  C        47.2491520658       24.4290293206       15.3277195589
  C        40.6281149130       17.1192626200       15.3231415893
  C        40.6412596557       17.1627403361       12.5130254082
  C        11.8830369834       14.0865171457       10.2855525100
  C        12.4723314336       12.9107558592       10.9897779334
  C        11.7148041357       12.1775349525       11.9158728805
  C        12.2813753144       11.0950554293       12.5842497738
  C        13.6202064884       10.7213266193       12.3524426683
  C        14.3581892604       11.4369149004       11.3916633028
  C        13.7927855051       12.5181193397       10.7190100138
  C        14.2537619337        9.6245374535       13.1228353533
  C        14.2524460751        9.6444907877       14.5446715734
  C        13.7426680795       10.7534867386       15.2917389205
  C        22.5121919252        3.2434548513        21.743127180138
  C        23.2290887387        4.3465416689        21.043029049438
  C        24.2250364046        4.0618544764        20.097153143038
  C        24.8556454308        5.0982328240        19.413993545538
  C        24.5056963411        6.4413124902        19.656561424738
  C        23.5377205002        6.7175232072        20.639338576838
  C        22.9025493602        5.6828541765        21.321107395838
  C        25.1157321997        7.5446550011        18.880442337838
  C        25.0914613813        7.5362686815        17.458947081538
  C        24.3864843268        6.5390986595        16.712691472838
  C        38.2974870663       31.9282300678        21.841431682738
  C        37.5547211159       30.8407179486        21.139609691938
  C        36.5882576299       31.1497975539        20.169768436238
  C        35.9558339524       30.1336793291        19.458366235438
  C        36.2743207646       28.7814946188        19.692723655438
  C        37.2102664017       28.4798486844        20.700315034138
  C        37.8465051329       29.4949552975        21.411451452238
  C        35.6628273854       27.6945225711        18.892637814638
  C        35.7026271606       27.7103358524        17.470764077038
  C        36.4131242960       28.7128660420        16.737966172538
  C        25.7186845729        8.6039647081        16.739266949638
  C        25.7124521740        8.6194428320        19.551408548538
  C        38.3300433983       31.9612727645       10.1595977599
  C        37.6119664445       30.8892764715       10.9080320521
  C        36.6778456878       31.2003277774       11.9082984448
  C        36.0662690342       30.1843834149       12.6406512141
  C        36.3740676331       28.8306108291       12.3974836856
  C        37.2889918527       28.5295276080       11.3696546537
  C        37.9021241872       29.5419523591       10.6380573910
  C        35.7586629276       27.7330105659       13.1795013320
  C        35.7512832920       27.7302253996       14.6021305138
  C        36.4348588702       28.7235073071       15.3714994082
  C        46.1355073881       26.6207634204       15.2814797415
  C        46.0878988661       26.5802174187       12.4735889882
  C        22.4616442750        3.2552005719       10.2569582589
  C        23.1585678913        4.3623741205       10.9789968587
  C        24.1627098654        4.0731533861       11.9166504738
  C        24.7940467190        5.1011387063       12.6124711512
  C        24.4412296217        6.4477353058       12.3931770482
  C        23.4601448051        6.7302930726       11.4239633097
  C        22.8242068536        5.7024836011       10.7284841885
  C        25.0755927709        7.5432740849       13.1675777180
  C        25.0710581625        7.5351961126       14.5902122737
  C        24.3748834132        6.5397649555       15.3461303216
  C        26.6119306340       17.8574033712        21.772637484738
  C        25.3060412634       17.9034672729        21.049203018838
  C        25.0408090545       18.9061803615        20.102866941338
  C        23.8292724427       18.9230801454        19.414792515938
  C        22.8452828321       17.9422018052        19.652826889938
  C        23.1055831833       16.9628722521        20.630081693738
  C        24.3197547420       16.9393712012        21.314601173738
  C        21.5732846370       17.9273681431        18.886890902738
  C        21.5752915566       17.9108086833        17.464289670038
  C        22.7819395926       17.7923097249        16.704692139138
  C        34.4368882357       17.1914888928        21.911991739038
  C        35.7323384938       17.1394496296        21.171449912838
  C        35.9408794040       16.1628182450        20.185032457138
  C        37.1212530903       16.1486211723        19.447305975238
  C        38.1255716118       17.1088291552        19.677395920238
  C        37.9205765982       18.0651581520        20.689856534038
  C        36.7368108832       18.0854530485        21.424149866538
  C        39.3791859621       17.1160544752        18.889491013538
  C        39.3733714625       17.1296912788        17.467956013338
  C        38.1649443187       17.2506830144        16.712572769138
  C        20.3292152412       17.9283984470        16.754867555838
  C        20.3483102240       17.9270529784        19.568484769638
  C        34.4210377495       17.2250214620       10.2541555951
  C        35.7319913473       17.1554552473       10.9617484325
  C        35.9747590741       16.1609433657       11.9215164263
  C        37.1733770227       16.1450598066       12.6282471783
  C        38.1591227814       17.1235739299       12.3952573415
  C        37.9251955303       18.0911511641       11.4007956296
  C        36.7249279667       18.1106978196       10.6950935837
  C        39.4122129439       17.1448637833       13.1811325136
  C        39.3902176918       17.1463692335       14.6022095860
  C        38.1729460937       17.2573011885       15.3460338171
  C        35.1141883370       26.6518341660       15.3020457329
  C        35.1770549398       26.6597339278       12.4922198322
  C        26.5732530742       17.8297062307       10.3237464232
  C        25.2568971521       17.8754817138       11.0282252047
  C        24.9870084999       18.8879271257       11.9612109485
  C        23.7699383466       18.9122581608       12.6367425885
  C        22.7925729784       17.9249527884       12.4007795664
  C        23.0556440632       16.9380392772       11.4337479961
  C        24.2741569378       16.9109603802       10.7578735985
  C        21.5288876321       17.9061537072       13.1742366546
  C        21.5521374607       17.8980070301       14.5958077881
  C        22.7705830007       17.7860396624       15.3382856531
  C        14.0468211939       17.8290171301       10.2884827584
  C        15.3513763545       17.8862215599       11.0128664548
  C        15.6078291535       18.8883539958       11.9616650050
  C        16.8170479494       18.9087630668       12.6540086082
  C        17.8040114616       17.9299715539       12.4196485600
  C        17.5524732605       16.9524379540       11.4383980346
  C        16.3426567554       16.9273096016       10.7477350726
  C        19.0727985498       17.9123503416       13.1887434591
  C        19.0706391912       17.9085450853       14.6111319547
  C        17.8632203719       17.8076211408       15.3715266146
  C        46.8041680099       17.2195487587       10.1592664154
  C        45.5135704206       17.1597564652       10.9053656835
  C        45.3049933546       16.1819533285       11.8903434967
  C        44.1230840567       16.1661222688       12.6264589623
  C        43.1195189465       17.1285830915       12.4003497689
  C        43.3253602381       18.0860608496       11.3887087963
  C        44.5078217657       18.1054346950       10.6532548010
  C        41.8667050940       17.1415843861       13.1901217900
  C        41.8738505229       17.1343172372       14.6123686002
  C        43.0836092942       17.2243557010       15.3706254575
  C        20.3169705587       17.9208008775       15.3200784778
  C        20.2973134614       17.8934607368       12.5070448354
  C        46.7861099569       17.2307047848        21.879750145038
  C        45.4829865903       17.1233463393        21.165033618538
  C        45.2657372635       16.1240052562        20.204547960638
  C        44.0778834949       16.0959247131        19.478317463738
  C        43.0787474883       17.0640396388        19.696527576538
  C        43.2861615265       18.0329811297        20.695813275238
  C        44.4752325254       18.0675475763        21.416824685238
  C        41.8327898388       17.0860001378        18.900129668538
  C        41.8568991085       17.1034547255        17.479387239138
  C        43.0755327105       17.2072739764        16.737167260438
  C        46.1532725450       26.6371824016        16.716029991938
  C        46.1623501567       26.6560690184        19.525668343938
  C        14.0448786629       17.8306689325        21.697874129238
  C        15.3647349426       17.9023102964        21.005683630538
  C        15.6391218148       18.9174256788        20.077095002038
  C        16.8676992845       18.9526219781        19.421547715038
  C        17.8492226691       17.9717537314        19.668734796038
  C        17.5814261808       16.9851031892        20.634999090338
  C        16.3549485857       16.9494318722        21.294174620538
  C        19.1165812010       17.9465069391        18.900438245838
  C        19.0936558540       17.9252517742        17.478979939238
  C        17.8744113350       17.8153169501        16.737534224038
  C        28.8072887079       14.0902513099       10.3899132200
  C        28.1986303150       12.9122416091       11.0733559337
  C        28.9312177161       12.1633174687       12.0059437684
  C        28.3366996112       11.0865256498       12.6589297604
  C        26.9959250386       10.7352422949       12.4024464587
  C        26.2852478204       11.4638278659       11.4319922496
  C        26.8776591747       12.5408635640       10.7775255839
  C        26.3310239473        9.6537552314       13.1650613369
  C        26.3240810066        9.6771127192       14.5861222900
  C        26.8340576090       10.7870279619       15.3320622371
  C        32.1835326452       21.2378793801       10.1424547132
  C        32.7779500305       22.4045643918       10.8614002697
  C        32.0268949329       23.0862057933       11.8317712282
  C        32.5952626093       24.1257750377       12.5615914144
  C        33.9312976969       24.5142224390       12.3428423594
  C        34.6648748887       23.8524774206       11.3397188392
  C        34.0987566475       22.8069554370       10.6117988377
  C        34.5552223724       25.5907861690       13.1470824005
  C        34.5322972829       25.5655972452       14.5691722653
  C        34.0201329381       24.4502592134       15.3042539332
  C        25.7126850121        8.5999751742       15.3047530652
  C        25.6906552151        8.6055552892       12.4916227251
  C        32.0918471578       21.1721264159        21.832550034638
  C        32.6537954379       22.3459750362        21.100339801238
  C        31.9247828130       22.9821896057        20.083925180838
  C        32.4907616379       24.0335536431        19.364867696338
  C        33.8012112901       24.4748968184        19.637688797938
  C        34.5096267829       23.8522430099        20.683795631138
  C        33.9474383231       22.8008683177        21.402137265938
  C        34.4404566092       25.5623908648        18.859759328438
  C        34.4731841162       25.5513347513        17.437183046438
  C        33.9915357074       24.4436835609        16.670604163038
  C        40.6189746600       17.1066446622        16.757448331538
  C        40.6031335769       17.1110900350        19.567233118238
  C        28.7400627449       14.0631205589        21.805035900138
  C        28.1357673768       12.9140768126        21.068703788838
  C        28.8821678401       12.2026323480        20.116748651338
  C        28.3044399762       11.1458123923        19.417469599138
  C        26.9654234732       10.7718489632        19.647688930038
  C        26.2360796197       11.4692106947        20.628756588638
  C        26.8114698263       12.5280873362        21.328273394338
  C        26.3281969172        9.6794395900        18.874036954438
  C        26.3248895633        9.6900576438        17.452323106038
  C        26.8327124965       10.7942145823        16.697999873938
  C        18.1353890847        3.1808873948       10.3171311944
  C        17.4060350354        4.2781549567       11.0157217688
  C        16.3902227777        3.9997654751       11.9431240472
  C        15.7424793277        5.0397344894       12.6066312308
  C        16.0944492455        6.3834569529       12.3670563016
  C        17.0839197978        6.6530080898       11.4033919529
  C        17.7330204675        5.6156793268       10.7383147751
  C        15.4700988561        7.4911461643       13.1301126772
  C        15.4853252569        7.4904310182       14.5518310691
  C        16.1868064797        6.4967672700       15.3050075489
  C        42.9457008001       31.8594663066       10.0728037186
  C        43.6460562842       30.7717515144       10.8167884920
  C        44.5915058946       31.0931009134       11.8029182510
  C        45.1972054173       30.0875753857       12.5506176222
  C        44.8708668187       28.7345052187       12.3356970792
  C        43.9451087492       28.4201371608       11.3224358189
  C        43.3362961780       29.4252662329       10.5743634578
  C        45.4885224264       27.6552336877       13.1388767268
  C        45.4926564783       27.6808169211       14.5605745557
  C        44.8054288970       28.6887664726       15.3072020744
  C        14.8563982459        8.5629425378       15.2642046879
  C        14.8749177331        8.5629779886       12.4515321341
  C        42.9463886767       31.9615522322        21.798791749538
  C        43.6915719888       30.8853882833        21.085254421938
  C        44.6563234250       31.1912785128        20.113113154138
  C        45.2778141663       30.1716879186        19.395356987038
  C        44.9538605004       28.8213940951        19.632857464138
  C        44.0201448212       28.5237301898        20.643409709938
  C        43.3919077487       29.5405110933        21.355600255338
  C        45.5629522429       27.7240014767        18.847619629138
  C        45.5331964426       27.7172749372        17.426324712238
  C        44.8267267851       28.7074082687        16.673386023738
  C        35.0865554104       26.6433790230        16.737423507038
  C        35.0474760756       26.6214649261        19.547655222338
  C        18.1485806299        3.2469251583        21.696439004738
  C        17.4299535923        4.3437812378        20.987168622338
  C        16.4146956241        4.0524855279        20.063663061838
  C        15.7663532994        5.0830967421        19.388268223538
  C        16.1210560299        6.4283318817        19.610917295838
  C        17.1124863163        6.7117489698        20.568108896438
  C        17.7601807625        5.6828499155        21.247887237738
  C        15.4905425626        7.5240150985        18.838457128738
  C        15.4963638998        7.5073559912        17.417318743438
  C        16.1930332216        6.5055934237        16.670613657238
  H        10.6725123515       12.4658449885        19.894298823438
  H        11.6947422348       10.5510107918        18.652434116938
  H        15.3917520692       11.1686287311        20.761977408338
  H        14.3513418323       13.0714071486        22.007163678938
  H        13.3763514838       11.6312083525        17.191083594738
  H        50.3227274807       22.7482807536        19.976483767038
  H        49.3195995454       24.6227157637        18.670457509838
  H        45.6423565802       24.1615662274        20.853836154238
  H        46.6632622741       22.2906636489        22.162150154038
  H        47.6300310497       23.5759639102        17.235938393538
  H        14.8722211333        8.5882786706        20.598345100838
  H        50.2870824759       22.7024270607       12.0606556498
  H        49.2691169257       24.5752940158       13.3606759143
  H        45.6109484831       24.1099048692       11.1454102049
  H        46.6530758392       22.2546041499        9.8311075668
  H        47.6080207864       23.5519372726       14.7968418767
  H        40.6449086753       17.1365426837       11.4249758367
  H        48.6872078159       14.0949818283        23.789799202938
  H        10.6813251402       12.4665810542       12.0932485993
  H        11.6896025564       10.5246200857       13.2969276066
  H        15.3936599284       11.1591202200       11.2058062584
  H        14.3652108555       13.0875664853        9.9906098505
  H        13.3759885852       11.6221615803       14.7530998548
  H        47.9301198183       14.2187235557        9.7109410214
  H        47.7801915026       14.3743087233        22.485292024738
  H        49.0839147328       18.5526015592       10.8675310013
  H        10.4163481430       14.1343352022        7.9988614800
  H        24.4824720333        3.0221010703        19.908049283138
  H        25.6283279521        4.8774872482        18.680754460538
  H        23.2603437283        7.7516931270        20.832627995238
  H        22.1330444307        5.8864559842        22.061769014938
  H        23.8228185460        5.7840631934        17.252870075338
  H        36.3573415146       32.1944237482        19.974943567538
  H        35.2073353998       30.3790204598        18.708082620938
  H        37.4645897035       27.4390846262        20.890178719938
  H        38.5942961287       29.2676141012        22.167625153238
  H        36.9726487655       29.4640773937        17.287679911238
  H        25.7429148024        8.6047805653        20.639387757338
  H        36.4503340799       32.2449265950       12.1085034650
  H        35.3350810103       30.4325588112       13.4068239358
  H        37.5403878871       27.4889915102       11.1751161779
  H        38.6290322242       29.3129854302        9.8625459323
  H        37.0119820524       29.4825053212       14.8511374989
  H        46.1093474501       26.5876912761       11.3855537930
  H        44.6681306657       35.1160904801        23.803847782038
  H        24.4389353404        3.0341660271       12.0814788465
  H        25.5762770348        4.8701458451       13.3324234130
  H        23.1764365907        7.7655757065       11.2459127630
  H        22.0509057119        5.9175394309        9.9946090467
  H        23.8016975194        5.7857679773       14.8144519268
  H        44.9533744126       34.3899568410        9.6949120521
  H        44.9014433490       34.2066005704        22.480568571438
  H        40.6657797364       33.2088568435       10.8530265366
  H        23.1505115667        1.9575523600        8.0052805212
  H        25.7935666891       19.6701001586        19.922105291038
  H        23.6292721324       19.7060234992        18.686389703638
  H        22.3572755365       16.1967960914        20.822865370838
  H        24.5317594095       16.1693939480        22.052777971538
  H        23.7229857064       17.6744381108        17.234276096238
  H        35.1596505158       15.4275587295        20.006724972638
  H        37.2823407341       15.3846233715        18.689798350438
  H        38.6881976640       18.8146766924        20.871198278938
  H        36.5611810442       18.8390418331        22.188396515138
  H        37.2264146717       17.3713541820        17.246066072238
  H        20.3542510370       17.9641528465        20.656450837138
  H        35.2099493516       15.4105432880       12.1066480896
  H        37.3608827929       15.3711265369       13.3693335006
  H        38.6806956917       18.8519541952       11.2155947629
  H        36.5233402836       18.8732401267        9.9464166345
  H        37.2399231286       17.3824547915       14.8042432375
  H        35.1614280938       26.6835828028       11.4042221859
  H        28.5088442986       21.0843665880        23.871072968338
  H        25.7443066056       19.6484025724       12.1377302877
  H        23.5607657455       19.7008241736       13.3564270688
  H        22.3089666865       16.1692211011       11.2457322836
  H        24.4937161791       16.1367151283       10.0266330328
  H        23.7026919105       17.6636472777       14.7945584496
  H        29.0087912248       21.7239634003        9.7395069687
  H        29.1684128964       21.7358796150        22.540728170038
  H        32.0487082052       18.6084143712       10.9242460727
  H        27.4038764502       19.0719021646        8.0850843386
  H        14.8490418188       19.6467024439       12.1413107922
  H        17.0122851757       19.6918928499       13.3834672894
  H        18.3041812226       16.1890478667       11.2483140412
  H        16.1367667310       16.1591620193       10.0061086546
  H        16.9212184155       17.6911464304       14.8435659883
  H        46.0861716007       15.4475750892       12.0722649351
  H        43.9624988980       15.3997269767       13.3815492450
  H        42.5593698107       18.8377020778       11.2093989186
  H        44.6826346305       18.8592161721        9.8891117855
  H        44.0249598893       17.3397759891       14.8410036344
  H        20.2919245641       17.9228054136       11.4188999934
  H        46.0435363026       15.3844676186        20.028492625138
  H        43.9114339424       15.3209650310        18.733256622138
  H        42.5189871396       18.7845591105        20.869911815538
  H        44.6578926734       18.8345444053        22.165412355138
  H        44.0107950041       17.3085206768        17.280146969738
  H        46.1991798699       26.6826574606        20.613113125938
  H        52.7413142149       21.0627087027        8.1947265810
  H        14.8799441290       19.6727161426        19.886180946938
  H        17.0801303591       19.7428781172        18.704701284838
  H        18.3306839276       16.2214045607        20.833187106638
  H        16.1327007892       16.1750862385        22.024345935438
  H        16.9408352079       17.7048516609        17.280971111438
  H        52.3227323934       21.6734198210        22.284005884938
  H        52.0135494974       21.7023343586        9.4956803105
  H        49.0678108324       18.6079963450        21.193944899638
  H        13.2477083561       19.0160305044        23.966948634038
  H        29.9639976916       12.4424364996       12.2028473968
  H        28.9051173954       10.5039244081       13.3807324460
  H        25.2492285817       11.2018612329       11.2272309372
  H        26.3267079878       13.1256678089       10.0450219004
  H        27.1990197281       11.6551760220       14.7912745529
  H        31.0001059791       22.7764579118       12.0097475115
  H        32.0064412992       24.6514013477       13.3101336673
  H        35.6987189010       24.1424436036       11.1633646287
  H        34.6718283220       22.2724748310        9.8575915358
  H        33.6748036424       23.5779284844       14.7566940877
  H        25.7163994463        8.5890078753       11.4034735949
  H        30.9201765057       22.6300346384        19.860041410738
  H        31.9166489832       24.5273088763        18.583901531538
  H        35.5238755935       24.1797346547        20.902584444638
  H        34.5022046525       22.2999073724        22.191850877938
  H        33.6248764241       23.5654881963        17.194247004238
  H        40.5977643624       17.0736583829        20.654903513538
  H        32.5122167813       14.1545508124        8.2394707991
  H        29.9177726756       12.4872253912        19.945238879238
  H        28.8898983849       10.5903170784        18.687987899938
  H        25.2000535836       11.1923478687        20.812905421838
  H        26.2452886773       13.0828204791        22.072767304738
  H        27.1957451011       11.6679595572        17.231441345138
  H        33.3032392399       14.2247950275        22.444184456738
  H        33.4088885871       14.3732935260        9.6095704148
  H        32.1301557892       18.5017469871        21.149101423338
  H        30.1928794765       14.1505097735        8.0821303220
  H        16.1181243447        2.9632565597       12.1294540375
  H        14.9529545314        4.8203257771       13.3222009496
  H        17.3664290921        7.6858800552       11.2103703584
  H        18.5151126299        5.8183422381       10.0105280302
  H        16.7533106097        5.7393896177       14.7715056680
  H        44.8276752915       32.1402008144       11.9771444929
  H        45.9369963039       30.3413474684       13.3066286774
  H        43.6824508353       27.3780625906       11.1522991089
  H        42.5997312520       29.1899222753        9.8096470851
  H        44.2299414760       29.4364301458       14.7688953120
  H        14.8512551291        8.5462505748       11.3633090330
  H        44.8999662563       32.2339561992        19.921779713038
  H        46.0248240108       30.4128888195        18.642213922038
  H        43.7629537284       27.4840228450        20.834786256738
  H        42.6451743678       29.3177365747        22.113825110038
  H        44.2681126154       29.4702029065        17.207992764738
  H        34.9970500446       26.6343748854        20.634824210738
  H        36.6051148444       35.1340291568        8.1805543444
  H        16.1435944650        3.0129006302        19.894009460838
  H        14.9739889312        4.8562222385        18.678236858138
  H        17.3960467630        7.7472159507        20.744918670238
  H        18.5430996695        5.8933185678        21.972600960438
  H        16.7644226674        5.7553228706        17.209056113638
  H        36.2787631089       34.4822052703        22.263109547338
  H        36.3807527349       34.2090902268        9.4995407731
  H        40.5785268827       33.2014609734        21.143813870938
  H        17.4708181174        1.9470115531        23.963864055138
  H        29.3825247931       19.5410599070       12.5563178514
  H        28.7592828381       18.8389470770        19.775021981938
  H        30.7827320353       15.5266898007        19.729981338738
  H        32.2267598575       16.4195666924       12.3721014936
  H        28.5711664432       18.2450114915       14.7767859171
  H        32.2726670737       16.8730460242        17.434293591438
  H        18.8526779373        0.8687064874       12.3352307159
  H        40.5281812898       35.2292914740        19.941993454038
  H        42.3231473170       34.4183028844        19.580772483638
  H        22.0874105214        0.6923692243       12.3513096627
  H        11.5968773924       18.7128750245       12.3825958110
  H        52.2650943015       18.4311632203        19.667185314438
  H        49.2546209732       16.4773081442        19.574614035938
  H        10.1507485250       15.7981414383       12.2922835073
  H        50.8502245576       17.6925709769        19.943953104138
  H        10.0463582178       17.3945926533       12.0519151500
  H        20.2137523570        0.0020057460       12.0421238343
  H        39.1836725606       36.1244461399        19.676071615438
 Ni        30.4882119780       17.6364614989        18.741310862338
 Ni        30.6881433942       15.9151072983       14.987404560038
 Ni        30.3923609826       17.7424024278        16.238824180638
 Ni        30.3540865977       17.5234142722       13.3254949647
  O        10.6499734432       14.3650970340        21.475627091938
  O        12.6131809243       14.6574954543        22.573694715438
  O        49.1479282839       16.8458903875        23.979576311638
  O        50.3502393359       20.9359257394        21.637919675038
  O        48.3485539474       20.5932962083        22.655731822138
  O        11.0517768260       17.0538954072        22.490519495938
  O        50.3210602981       20.8816376677       10.4068638329
  O        48.3467669300       20.5867483313        9.3271747768
  O        49.5435900663       18.2483743456       10.0683203177
  O        12.3590653973       18.6246435513        7.9997209895
  O        48.6932633935       14.1485208895        22.741120419638
  O         8.2098274409       14.2104849215        9.3226444539
  O        10.7353673665       14.5067807082       10.6643154855
  O        12.5718114951       14.5827992766        9.3285212742
  O        22.8443445003        2.0422063708        21.477213353538
  O        21.6057259613        3.5922854713        22.579174742338
  O        42.0579435697       34.1370970887        23.968733299338
  O        37.9814228906       33.1373738260        21.562242000238
  O        39.2168880383       31.5751074320        22.655184289838
  O        20.3082828874        1.0393846063        22.491881824038
  O        38.0245978261       33.1855222223       10.4153863344
  O        39.2184873410       31.5831633674        9.3272737062
  O        40.6521341059       33.7691552767       10.0601307239
  O        18.2555623093        1.3759222423        7.9967852094
  O        44.6222364122       35.1004832553        22.748592568738
  O        24.2053750193       -0.0000442255        9.3207932377
  O        22.7529713888        2.0570907842       10.5834919799
  O        21.6245979299        3.5961289013        9.3429127152
  O        27.4903049543       18.7506048135        21.483928741138
  O        26.7601301574       16.9348460023        22.643115814138
  O        30.6593523661       19.4063641505        8.0182747242
  O        33.5824023208       16.2763303579        21.656142922838
  O        34.2723963344       18.1660793095        22.728144743738
  O        29.5698823590       17.0490391871        22.578659407638
  O        33.5373152852       16.3409258512       10.5688392512
  O        34.2671664769       18.1668212498        9.4120836540
  O        31.6507986103       18.3198623780       10.0864779358
  O        30.2956295579       15.1156428383        8.0838087196
  O        28.5544357392       21.0333304537        22.820863050438
  O        28.5156510099       20.9555546850        9.4051849269
  O        27.4594674106       18.6802225524       10.6571183459
  O        26.6943961261       16.9292512341        9.4122370136
  O        13.1487225512       18.6929120611       10.5873601148
  O        13.9192096711       16.9162022021        9.4048893447
  O        50.5962939911       19.3502632314        8.0206143735
  O        47.6819074917       16.3274008776       10.4176115939
  O        46.9513289348       18.1760694289        9.3246909272
  O        11.0696597979       17.0155883764        9.4896220771
  O        47.6765913358       16.3354413406        21.643163110738
  O        46.9272915447       18.2357938386        22.654398249938
  O        49.5688107760       18.3177588636        21.972165947238
  O        10.3187961192       15.1001633216        7.9971643564
  O        52.6707771997       21.0278799095        9.2418261006
  O        12.1468469018       20.8912178125        22.663045100638
  O        13.1079908323       18.6136261625        21.315464363338
  O        13.9568353211       16.9868677627        22.655354383638
  O        29.9892612868       14.4434425441       10.7287048684
  O        28.0851436601       14.6535966737        9.4953978439
  O        32.0734234233       16.8502590012        8.0789530723
  O        30.9669137583       20.9509781667       10.4066605478
  O        32.9490053742       20.5963100371        9.3362014593
  O        29.5625845187       17.0720235629        9.5787057285
  O        30.8851588723       20.8208016740        21.570069471338
  O        32.8719127262       20.5844818983        22.654046284138
  O        31.6813915488       18.2417800679        21.970632569038
  O        28.2902979422       18.6756524650        8.0699537924
  O        32.4910079134       14.2161083612        9.3256998174
  O        32.4051351851       14.2136731273        22.815530681438
  O        29.9162452007       14.4361773856        21.473821090038
  O        28.0375314510       14.5857728195        22.737082881138
  O        17.8891914591        1.9665694176       10.6627979894
  O        18.9562177026        3.5270925115        9.4079597156
  O        39.1685541204       34.1386131460        7.9970677157
  O        43.2801896088       33.0588406707       10.3316829725
  O        42.0343846578       31.5064095621        9.2415467008
  O        20.3174682964        1.0365893165        9.4801997147
  O        43.2760992585       33.1825087415        21.564679187938
  O        42.0052168169       31.5840769991        22.572770210938
  O        40.5788740553       33.7747991093        21.925459080038
  O        22.3672288862        1.3845708680        7.9979846786
  O        36.6727346097       35.0997207874        9.2332476824
  O        16.4455712813        0.0642174474        22.658088337538
  O        17.9364817865        2.0433674388        21.316152441338
  O        18.9190580905        3.5931196199        22.655743285238
  O        29.6891914971       18.7544609018        20.056000115638
  O        29.8655308126       18.8961697330       12.0094839373
  O        31.1754609622       16.3476884569        20.080752098738
  O        31.2987136656       16.4177294641       12.0775134653
  O        31.3237041946       16.6404877536        17.396229389138
  O        29.5039763570       18.5297210269       14.7421578297
  O        39.4569281843       35.2439014852        19.991738981238
  O        19.1406381101        0.0042134474       11.9905988579
  O        41.9697524953       35.1729716464        20.076910968438
  O        21.6912201362       -0.0692768762       11.8958674012
  O        51.3652039821       18.6142760835        19.995181302038
  O        10.7511260208       18.7470952162       11.9049398945
  O        50.0791971517       16.4127581372        20.081561781438
  O         9.5246925321       16.4830315237       11.9911880122
 Zr         9.2976422931       16.0527380942        22.172272746638
 Zr        49.8366597208       16.0068238329        9.7463859248
 Zr        22.0730822831        0.0295765868        22.178871175938
 Zr        42.4606472716       35.1532669009        9.8009427452
 Zr        29.6029298469       19.0642485331        22.239739212438
 Zr        29.5780845569       19.1803503472        9.8471160594
 Zr        11.0385211239       19.0519726063        9.8278769139
 Zr        11.0443242487       19.1548706448        22.240774218938
 Zr        31.3226607281       16.0908258465        9.8729718750
 Zr        31.3727416218       16.0068882106        22.255725336138
 Zr        18.6008751701       -0.0017794897        9.7633134444
 Zr        18.5064585203       -0.0079227503        22.203238194038
 Zr        12.3026065935       16.3235204676        23.980252185638
 Zr        48.6171639103       18.8333293032        8.0103525737
 Zr        20.3151192494        2.4732793011        23.980374112738
 Zr        40.6427526211       32.6866506799        23.967721759038
 Zr        28.3379874190       16.3330109312        8.0857638431
 Zr        32.6126817011       18.8305787812        8.0418469499
  H        29.7525831123       18.4548809733        17.598127784938
  H        31.5274233496       17.0575050145       14.4278821169
