     569
 i =      119, E =     -4729.5319740095
  C        11.8586708936       14.0535211226        21.731377294038
  C        12.4561685211       12.8905654246        21.013092576438
  C        11.7045714813       12.1718010601        20.071228370238
  C        12.2809583054       11.1096090150        19.378862980538
  C        13.6214579779       10.7396373656        19.606780984438
  C        14.3545089783       11.4430272433        20.580474496738
  C        13.7816146886       12.5079933830        21.271994203038
  C        14.2610156829        9.6489869716        18.833385521538
  C        14.2564015852        9.6569406201        17.411684030038
  C        13.7433179917       10.7590932566        16.657760649138
  C        49.1267607191       21.2332135046        21.869493536138
  C        48.5500409120       22.4011229886        21.142435339138
  C        49.3000785706       23.0684149804        20.161410213038
  C        48.7331634209       24.1075542001        19.428207844638
  C        47.4026332498       24.5092612874        19.656831003838
  C        46.6716821075       23.8604211619        20.670378644938
  C        47.2341114541       22.8155187936        21.399747796538
  C        46.7724151274       25.5869588358        18.859537566938
  C        46.7615245196       25.5574057026        17.437770622638
  C        47.2615228165       24.4423587231        16.694251601038
  C        14.8603299035        8.5705894352        16.698426801338
  C        14.8917144991        8.5969878683        19.510041059938
  C        49.1131804125       21.2034705214       10.1453581988
  C        48.5278591790       22.3648461833       10.8724279166
  C        49.2671069342       23.0255888533       11.8653266769
  C        48.6907873522       24.0601542914       12.5967683396
  C        47.3603612835       24.4569351671       12.3585595736
  C        46.6399466473       23.8120220293       11.3350324679
  C        47.2134829678       22.7761046924       10.6032536747
  C        46.7219112646       25.5318809711       13.1496158585
  C        46.7337464064       25.5282605186       14.5713216932
  C        47.2492566293       24.4290792835       15.3276988596
  C        40.6195392326       17.0800447618       15.3094933263
  C        40.6288614378       17.1002452285       12.4996282883
  C        11.8829407228       14.0865119275       10.2854794462
  C        12.4722217579       12.9106549328       10.9896512369
  C        11.7148048283       12.1776387345       11.9159927052
  C        12.2813842094       11.0951765323       12.5844067888
  C        13.6201121624       10.7212298518       12.3523671836
  C        14.3579398290       11.4365595266       11.3912676373
  C        13.7925300694       12.5177423404       10.7185836015
  C        14.2537482084        9.6245096404       13.1227978304
  C        14.2525639661        9.6445594792       14.5446405897
  C        13.7427742805       10.7535508113       15.2917131345
  C        22.5120898407        3.2438075726        21.743360842138
  C        23.2282504804        4.3483367277        21.044277343338
  C        24.2241740614        4.0664974144        20.097563980538
  C        24.8529843415        5.1049416260        19.415597860638
  C        24.5014471988        6.4471515814        19.660591747438
  C        23.5337958268        6.7205144764        20.644413028238
  C        22.9002872372        5.6838486744        21.324685850738
  C        25.1078039147        7.5531041958        18.884909395438
  C        25.0761282172        7.5481645858        17.463499007638
  C        24.3720293476        6.5500218175        16.717635299638
  C        38.2978114158       31.9276413936        21.841659991138
  C        37.5559387512       30.8393933188        21.140516838038
  C        36.5913322496       31.1470551701        20.168431235738
  C        35.9603565588       30.1297383486        19.457585499638
  C        36.2783043047       28.7779684344        19.695109318738
  C        37.2120722836       28.4778163033        20.705094395738
  C        37.8470883005       29.4941202710        21.415462826338
  C        35.6674992141       27.6903175875        18.895769813838
  C        35.7078024598       27.7051884947        17.473970086438
  C        36.4214772513       28.7053877180        16.740980281838
  C        25.6967521064        8.6194183014        16.743660186138
  C        25.7082720374        8.6259004775        19.555832109238
  C        38.3301526781       31.9603504982       10.1605163844
  C        37.6132873574       30.8875987006       10.9098952023
  C        36.6809283220       31.1975380641       11.9122604099
  C        36.0705638871       30.1809720034       12.6450591893
  C        36.3771238432       28.8270431546       12.4004621338
  C        37.2903698124       28.5270720955       11.3707011060
  C        37.9025738838       29.5401639591       10.6388857207
  C        35.7613303694       27.7290754606       13.1825874217
  C        35.7553689432       27.7252845047       14.6053484094
  C        36.4426660389       28.7161161729       15.3745203759
  C        46.1356942364       26.6208601761       15.2814783627
  C        46.0878011177       26.5801631121       12.4735799978
  C        22.4603803866        3.2561188031       10.2579482269
  C        23.1532236949        4.3656385002       10.9814672839
  C        24.1550227748        4.0808027876       11.9229475462
  C        24.7815652122        5.1116867575       12.6192619852
  C        24.4266521445        6.4573370961       12.3967793107
  C        23.4478876424        6.7354469875       11.4238160577
  C        22.8166760356        5.7047806574       10.7280608836
  C        25.0562961092        7.5561152172       13.1714236049
  C        25.0498403088        7.5494121080       14.5943787794
  C        24.3577101619        6.5516427592       15.3509767268
  C        26.6176444650       17.8596847239        21.769611708638
  C        25.3121022538       17.9082690120        21.045724361738
  C        25.0481027799       18.9090572008        20.097020651138
  C        23.8348288954       18.9274485355        19.411628682638
  C        22.8484213085       17.9499529036        19.654239440638
  C        23.1081608856       16.9723447370        20.633374244638
  C        24.3236460518       16.9473659025        21.315266343238
  C        21.5753531508       17.9343894497        18.889728652338
  C        21.5765673085       17.9130043247        17.467288866838
  C        22.7829401476       17.7907889253        16.708026252138
  C        34.4383195806       17.1931961075        21.910899121338
  C        35.7320086545       17.1427659704        21.167248619538
  C        35.9446868005       16.1597641811        20.187862067938
  C        37.1239965168       16.1447960422        19.448578273238
  C        38.1247706737       17.1110436108        19.669038045638
  C        37.9159613487       18.0745012898        20.674167283538
  C        36.7331559305       18.0951230157        21.410499220938
  C        39.3775985394       17.1149387358        18.878958010838
  C        39.3689419654       17.1118203652        17.456945872538
  C        38.1590442768       17.2209796251        16.701706435338
  C        20.3305123686       17.9297540678        16.757786966438
  C        20.3503296637       17.9360476974        19.571381966038
  C        34.4375662206       17.2384811437       10.1883459484
  C        35.7377822538       17.1383290383       10.9125537978
  C        35.9460335098       16.1512172166       11.8873823381
  C        37.1371251298       16.1172913085       12.6086534266
  C        38.1486013746       17.0698254475       12.3759080812
  C        37.9461573852       18.0306622899       11.3675075886
  C        36.7549068119       18.0690447241       10.6488865514
  C        39.3990344498       17.0827913909       13.1680158544
  C        39.3799189454       17.0960075032       14.5895383637
  C        38.1641643415       17.2121298586       15.3350197644
  C        35.1153972116       26.6486335562       15.3056093589
  C        35.1765301701       26.6570466488       12.4957336210
  C        26.5727762170       17.8274131229       10.3248384420
  C        25.2587378545       17.8722949378       11.0327170723
  C        24.9940968431       18.8783194245       11.9744998485
  C        23.7765681722       18.9032555824       12.6492494539
  C        22.7940031803       17.9228770101       12.4049400355
  C        23.0531051387       16.9418512381       11.4306670070
  C        24.2715217429       16.9142681675       10.7548340915
  C        21.5298488489       17.9046024187       13.1773244164
  C        21.5530708222       17.8958276958       14.5988507627
  C        22.7710917858       17.7822382830       15.3417909470
  C        14.0469067367       17.8288574120       10.2888713859
  C        15.3516848735       17.8858260359       11.0140775229
  C        15.6086005249       18.8885344368       11.9621717388
  C        16.8177016192       18.9090137126       12.6550127867
  C        17.8044466395       17.9296769268       12.4219566494
  C        17.5523661024       16.9513212890       11.4416161439
  C        16.3426756744       16.9262062391       10.7504362407
  C        19.0734717779       17.9121424405       13.1913967427
  C        19.0715760893       17.9086307331       14.6139529385
  C        17.8642377336       17.8093420627       15.3746780878
  C        46.8021290627       17.2162176455       10.1569022195
  C        45.5083550624       17.1458847324       10.8971760019
  C        45.3025856451       16.1610640710       11.8759619112
  C        44.1183850744       16.1328332462       12.6080083176
  C        43.1085838050       17.0892132542       12.3843130034
  C        43.3109412729       18.0528900067       11.3776829706
  C        44.4961225635       18.0849929905       10.6463117881
  C        41.8552688769       17.0922575024       13.1746299323
  C        41.8644181692       17.0945324060       14.5969473562
  C        43.0750582006       17.1949741625       15.3523628232
  C        20.3179740473       17.9202476610       15.3229786977
  C        20.2981710642       17.8929624761       12.5099197821
  C        46.7853497868       17.2326043785        21.876170975338
  C        45.4841812839       17.1290690541        21.155688594338
  C        45.2659885195       16.1289494264        20.195863337038
  C        44.0789986499       16.1013855853        19.467722979338
  C        43.0800907824       17.0712355570        19.681363573138
  C        43.2896579421       18.0427748257        20.678024152738
  C        44.4775093521       18.0762894049        21.401818075338
  C        41.8321679825       17.0886350905        18.886247589238
  C        41.8528390848       17.0912084450        17.464842447538
  C        43.0697049179       17.1902230929        16.719176175738
  C        46.1534765651       26.6372742089        16.716030160038
  C        46.1623577289       26.6560209290        19.525677971638
  C        14.0450094165       17.8313179464        21.698363683138
  C        15.3656722646       17.9048038016        21.007237941238
  C        15.6392996430       18.9202788768        20.078839924938
  C        16.8682443176       18.9571561052        19.423939409738
  C        17.8509322822       17.9776844688        19.671851078238
  C        17.5840418924       16.9909094255        20.638225623138
  C        16.3571188422       16.9535201896        21.296597061838
  C        19.1183955781       17.9528835103        18.903451230338
  C        19.0950789404       17.9285531351        17.481988511038
  C        17.8757167582       17.8181717601        16.740705353538
  C        28.8094171104       14.0937933943       10.3949424706
  C        28.1946591270       12.9226948337       11.0842937116
  C        28.9129082763       12.1860391461       12.0378002138
  C        28.3116096361       11.1112628046       12.6877873807
  C        26.9776302288       10.7497487969       12.4096466184
  C        26.2813040313       11.4674816163       11.4206705977
  C        26.8804429206       12.5419490284       10.7683848249
  C        26.3071232994        9.6699869957       13.1693896518
  C        26.2945998085        9.6960494183       14.5904844549
  C        26.7960324454       10.8094867930       15.3369010713
  C        32.1787426373       21.2369110300       10.1484960395
  C        32.7731476429       22.4018280535       10.8694970261
  C        32.0208088103       23.0866560527       11.8365213654
  C        32.5893043719       24.1277797586       12.5642693303
  C        33.9265899798       24.5132321498       12.3475462012
  C        34.6617418721       23.8471736512       11.3485020466
  C        34.0954823720       22.8008244947       10.6221293197
  C        34.5520562417       25.5896405012       13.1509957158
  C        34.5291168399       25.5645652882       14.5731408231
  C        34.0112383377       24.4519270229       15.3086051051
  C        25.6873887353        8.6167220416       15.3090271126
  C        25.6711218940        8.6189383458       12.4956153309
  C        32.0778369771       21.1973948899        21.864233076638
  C        32.6435980045       22.3626185411        21.123245315638
  C        31.9113944108       23.0047303689        20.112663641338
  C        32.4822715363       24.0472791624        19.384424862538
  C        33.7992511421       24.4762998985        19.644647740838
  C        34.5117392869       23.8472897068        20.684279861338
  C        33.9462030737       22.8025446217        21.409362512538
  C        34.4406038040       25.5609836917        18.863944321238
  C        34.4710539765       25.5502749304        17.441365459738
  C        33.9826160651       24.4454447879        16.675076449838
  C        40.6134129135       17.0833079961        16.744468244938
  C        40.6030269154       17.1196688458        19.554813284638
  C        28.7478049509       14.0682542223        21.807065684638
  C        28.1392849401       12.9203143309        21.070312334338
  C        28.8725079461       12.2269881099        20.095336811238
  C        28.2913603747       11.1704211129        19.398168883638
  C        26.9608052244       10.7800149611        19.651136111038
  C        26.2450985794       11.4603185187        20.654004878038
  C        26.8245597258       12.5177320709        21.352513128538
  C        26.3175860592        9.6901390181        18.878659563838
  C        26.3019534019        9.7059903335        17.456907994038
  C        26.7979110624       10.8154891610        16.702721551438
  C        18.1353793063        3.1807768001       10.3171421170
  C        17.4060410285        4.2780683339       11.0157734992
  C        16.3903162177        3.9997123696       11.9432750719
  C        15.7425622709        5.0396964499       12.6067630420
  C        16.0944780358        6.3834134202       12.3670960890
  C        17.0838498634        6.6529368363       11.4033215289
  C        17.7329568797        5.6155896543       10.7382809664
  C        15.4701588819        7.4911406814       13.1301279960
  C        15.4854864726        7.4905163337       14.5518451698
  C        16.1869860128        6.4968723924       15.3050327960
  C        42.9457523852       31.8594688046       10.0728317357
  C        43.6460951479       30.7717940694       10.8168105475
  C        44.5917656410       31.0931168505       11.8027483871
  C        45.1974681338       30.0875783986       12.5504241095
  C        44.8708998510       28.7345274782       12.3357014697
  C        43.9448944584       28.4201806529       11.3226579603
  C        43.3360797452       29.4253192597       10.5746016306
  C        45.4885789284       27.6552606765       13.1388783439
  C        45.4928709322       27.6809306949       14.5605741431
  C        44.8057701395       28.6889583431       15.3072101476
  C        14.8565657307        8.5630481181       15.2641981179
  C        14.8748683745        8.5629000961       12.4515289085
  C        42.9463771383       31.9615034877        21.798770391338
  C        43.6915710799       30.8853754801        21.085249526038
  C        44.6564572650       31.1912802657        20.113230769638
  C        45.2779909086       30.1716986426        19.395504602938
  C        44.9539524186       28.8213980759        19.632885659138
  C        44.0201100389       28.5237232403        20.643321516838
  C        43.3918238893       29.5404867077        21.355493108538
  C        45.5630703471       27.7240245709        18.847633920538
  C        45.5334399629       27.7173844513        17.426332616838
  C        44.8270796764       28.7075982164        16.673395055238
  C        35.0883534533       26.6400023317        16.741041988638
  C        35.0509188705       26.6183734669        19.551414386038
  C        18.1485698281        3.2468734745        21.696436126338
  C        17.4299256683        4.3437589321        20.987164594338
  C        16.4146712862        4.0524837803        20.063653741738
  C        15.7663418031        5.0831136144        19.388259890438
  C        16.1210490482        6.4283417807        19.610926247438
  C        17.1124723531        6.7117307680        20.568134025838
  C        17.7601577248        5.6828203854        21.247903495238
  C        15.4905674338        7.5240570483        18.838470098638
  C        15.4965008905        7.5074623367        17.417330185338
  C        16.1932025644        6.5057096025        16.670639786838
  H        10.6724926801       12.4660313566        19.894077023238
  H        11.6947213392       10.5512318025        18.652201331038
  H        15.3914720777       11.1682828257        20.762374174438
  H        14.3510072963       13.0710798059        22.007589492438
  H        13.3763305296       11.6312353420        17.191059961238
  H        50.3227785690       22.7483678915        19.976649829738
  H        49.3196591661       24.6228010657        18.670626948238
  H        45.6422038684       24.1612294454        20.853574182338
  H        46.6630697293       22.2903620564        22.161877620238
  H        47.6300568262       23.5759611641        17.235903825838
  H        14.8719810930        8.5881854343        20.598346509438
  H        50.2871560693       22.7027604310       12.0602438718
  H        49.2691928865       24.5756292839       13.3602476226
  H        45.6105372074       24.1092510977       11.1459725497
  H        46.6525979421       22.2539598043        9.8317257092
  H        47.6080431582       23.5519606555       14.7968089562
  H        40.6318679436       17.0680223653       11.4117395150
  H        48.6870905129       14.0950081511        23.789809118838
  H        10.6813949520       12.4668331630       12.0935543293
  H        11.6896467139       10.5249010152       13.2972432806
  H        15.3932837411       11.1584902568       11.2051188949
  H        14.3647964241       13.0869558259        9.9898738458
  H        13.3759820206       11.6221765955       14.7530712555
  H        47.9301097135       14.2185884014        9.7107983386
  H        47.7799622933       14.3737478987        22.485147307738
  H        49.0827571481       18.5520139009       10.8670647627
  H        10.4159317201       14.1343896142        7.9987820080
  H        24.4828600212        3.0273929604        19.906495620538
  H        25.6253109415        4.8863681285        18.681319194238
  H        23.2552437280        7.7540145338        20.839568654138
  H        22.1308159467        5.8852086415        22.065979650138
  H        23.8120691919        5.7925142994        17.258247016938
  H        36.3608992906       32.1913782009        19.971425321438
  H        35.2134212998       30.3736176074        18.705281476838
  H        37.4657699182       27.4373498640        20.897417224138
  H        38.5934416079       29.2681703517        22.173458697138
  H        36.9836610187       29.4546867111        17.290597370238
  H        25.7469320589        8.6063300503        20.643478575938
  H        36.4536285662       32.2419177959       12.1139224928
  H        35.3410226284       30.4289723078       13.4128726366
  H        37.5412809198       27.4867241221       11.1744407797
  H        38.6280694083       29.3112865192        9.8620057696
  H        37.0220197817       29.4732788706       14.8539257074
  H        46.1090681407       26.5875227485       11.3855410006
  H        44.6681785746       35.1160934912        23.803710835038
  H        24.4335282675        3.0428535084       12.0906574188
  H        25.5620707309        4.8834329801       13.3419552070
  H        23.1619608849        7.7696124314       11.2428121925
  H        22.0452361289        5.9169272938        9.9913899822
  H        23.7862641860        5.7959009104       14.8199047312
  H        44.9535102639       34.3902393688        9.6951599949
  H        44.9014970630       34.2066432821        22.480454860038
  H        40.6658169101       33.2087411695       10.8530316954
  H        23.1503899303        1.9575718942        8.0055328065
  H        25.8028987141       19.6699363457        19.911773406338
  H        23.6358669863       19.7090900738        18.681516984138
  H        22.3584792302       16.2084341124        20.829396598038
  H        24.5353090338       16.1782708149        22.054417614438
  H        23.7238668101       17.6736739772        17.237960078038
  H        35.1687673742       15.4177364895        20.015858933238
  H        37.2869558872       15.3750532995        18.697338818638
  H        38.6801480295       18.8291222997        20.848836592938
  H        36.5559782083       18.8537339192        22.169464365338
  H        37.2209396564       17.3454645447        17.235040840238
  H        20.3562395543       17.9760719128        20.659249872138
  H        35.1569596809       15.4274153890       12.0777314714
  H        37.2966616085       15.3485141888       13.3615781589
  H        38.7197887054       18.7729045976       11.1820854064
  H        36.5790199397       18.8288802643        9.8912973973
  H        37.2296137824       17.3291848927       14.7939395276
  H        35.1603864882       26.6806362334       11.4077263633
  H        28.5035105930       21.0779783235        23.875590589838
  H        25.7544611586       19.6342073171       12.1580637064
  H        23.5710549288       19.6878454489       13.3743179166
  H        22.3027129179       16.1782532460       11.2361885830
  H        24.4872553398       16.1453257194       10.0168467565
  H        23.7029370205       17.6586070302       14.7982234281
  H        29.0081931562       21.7210609750        9.7421570826
  H        29.1819144548       21.7214387508        22.550608276238
  H        32.0686158416       18.5550300192       10.9958740903
  H        27.4005284824       19.0679987619        8.0762772735
  H        14.8502274069       19.6475213261       12.1409593747
  H        17.0128493568       19.6929401969       13.3836584018
  H        18.3035335408       16.1871809519       11.2523906622
  H        16.1367617306       16.1574029207       10.0094712305
  H        16.9220276028       17.6934198529       14.8469410429
  H        46.0882199287       15.4313026627       12.0570859151
  H        43.9613317861       15.3617795288       13.3591178964
  H        42.5400022202       18.7996985561       11.1993334925
  H        44.6674085661       18.8440271320        9.8865121702
  H        44.0152037051       17.3081207150       14.8201433275
  H        20.2927440588       17.9230044812       11.4217830196
  H        46.0419156710       15.3867431762        20.022633194338
  H        43.9126668722       15.3240779022        18.725075611838
  H        42.5242279623       18.7967554901        20.849541834438
  H        44.6594126768       18.8447720038        22.149110261638
  H        44.0058638001       17.2987366723        17.259208658238
  H        46.1990657048       26.6825127938        20.613129078038
  H        52.7411587810       21.0626663405        8.1946724462
  H        14.8791132500       19.6744125270        19.887342328038
  H        17.0798505282       19.7476181963        18.707063876838
  H        18.3342335512       16.2282732415        20.836972948738
  H        16.1354814300       16.1789572995        22.026737791138
  H        16.9420953549       17.7090517645        17.284354874538
  H        52.3225938576       21.6733255089        22.284055935338
  H        52.0134606775       21.7022454508        9.4957411450
  H        49.0675204142       18.6079851188        21.193891510338
  H        13.2474007401       19.0164029412        23.967069896038
  H        29.9401467212       12.4701402874       12.2546303858
  H        28.8703676182       10.5379550423       13.4243542409
  H        25.2506962667       11.1985275609       11.1983128707
  H        26.3405306935       13.1167206932       10.0199359447
  H        27.1542561619       11.6803255273       14.7964172276
  H        30.9935312338       22.7779622649       12.0139704687
  H        31.9996433005       24.6563604536       13.3100685734
  H        35.6968219910       24.1341240539       11.1745660141
  H        34.6697186999       22.2625841950        9.8715116776
  H        33.6606260138       23.5815959992       14.7612804485
  H        25.7013326484        8.5997027960       11.4076066493
  H        30.9003341751       22.6647251238        19.899492091338
  H        31.9062913023       24.5444145168        18.606953577338
  H        35.5311270311       24.1651972906        20.893050356238
  H        34.5043420569       22.2966627390        22.193541069138
  H        33.6101378467       23.5696380497        17.198778479638
  H        40.5991738980       17.0933932725        20.642836846238
  H        32.5032788108       14.1499613789        8.2526576151
  H        29.8994381463       12.5290008146        19.902980238238
  H        28.8678148247       10.6286832993        18.651379344338
  H        25.2157473212       11.1716695265        20.856640827438
  H        26.2682178588       13.0587389850        22.114241126338
  H        27.1558168077       11.6910931335        17.236502806438
  H        33.3094581751       14.2395714575        22.458838910738
  H        33.4066470132       14.4078137016        9.5963018089
  H        32.1202115967       18.4728162350        21.138771620738
  H        30.2112865690       14.1873385379        8.0795792356
  H        16.1182423358        2.9632053069       12.1296576087
  H        14.9530766552        4.8202847130       13.3223763643
  H        17.3662467856        7.6858168127       11.2101831779
  H        18.5149461859        5.8182111927       10.0103732569
  H        16.7534399089        5.7394536665       14.7715347421
  H        44.8281486708       32.1401923942       11.9768259487
  H        45.9374347105       30.3413195622       13.3062737813
  H        43.6820157152       27.3781325693       11.1526949500
  H        42.5993310104       29.1899619413        9.8100670490
  H        44.2303258451       29.4366653928       14.7689149266
  H        14.8510247831        8.5460566301       11.3633113196
  H        44.9001929214       32.2339524542        19.921980457838
  H        46.0250951939       30.4129092877        18.642458813338
  H        43.7628279349       27.4840216609        20.834608660838
  H        42.6450031911       29.3176669987        22.113619056338
  H        44.2685146278       29.4704330791        17.207998175838
  H        35.0013644680       26.6313824931        20.638620895638
  H        36.6051078078       35.1338933953        8.1807132242
  H        16.1435454197        3.0129056974        19.893989700338
  H        14.9739607129        4.8562427755        18.678243806038
  H        17.3959989200        7.7471994098        20.744985318138
  H        18.5430609847        5.8932502514        21.972643914838
  H        16.7645262023        5.7553990063        17.209098942238
  H        36.2785329565       34.4822654851        22.263082166238
  H        36.3804905438       34.2091557761        9.4997784661
  H        40.5785742629       33.2012394578        21.144002013038
  H        17.4708728078        1.9466853079        23.963873325038
  H        29.1781644938       19.3639404952       12.5896305726
  H        28.8224170579       18.8145653016        19.663024898838
  H        31.6068510498       15.6831590358        19.510166293938
  H        31.2315046841       15.5875808618       12.4886335924
  H        27.9446767899       17.8140284431       14.4829394970
  H        29.1030542355       15.4116361959       14.3953445718
  H        32.4131114477       17.1125228480        17.290238719038
  H        18.8532742426        0.8688009239       12.3352298677
  H        40.5279550610       35.2291373370        19.941963077738
  H        42.3231919506       34.4180868748        19.580825913138
  H        22.0877404091        0.6921931453       12.3512255033
  H        11.5971537001       18.7127864380       12.3823554284
  H        52.2644892294       18.4314374609        19.666842955838
  H        49.2554296294       16.4768492131        19.574298279838
  H        10.1502451768       15.7981955012       12.2927538913
  H        50.8498820918       17.6922610292        19.944083636538
  H        10.0461094338       17.3945557890       12.0519866280
  H        20.2145954451        0.0021605925       12.0419673541
  H        39.1835267988       36.1244452545        19.676263237638
 Ni        30.5721731415       17.5895951904        18.654912758138
 Ni        30.8609162911       16.2106154661       15.748899591638
 Ni        29.6715410316       18.2573984839        16.159319148438
 Ni        30.0070399969       17.3361535341       13.2373132031
  O        10.6498854750       14.3651140218        21.475645585438
  O        12.6131484103       14.6575326958        22.573693663438
  O        49.1477597832       16.8459632794        23.979590670138
  O        50.3502412726       20.9358308708        21.637928785838
  O        48.3485433581       20.5932611333        22.655763180238
  O        11.0515373442       17.0539090379        22.490486641838
  O        50.3209968692       20.8816287642       10.4068277204
  O        48.3467323564       20.5867150762        9.3271280124
  O        49.5435898381       18.2484196462       10.0682779642
  O        12.3589525578       18.6246097381        7.9997470036
  O        48.6931973749       14.1486253456        22.741085489738
  O         8.2098625478       14.2104523340        9.3225645059
  O        10.7353613205       14.5067733383       10.6643236854
  O        12.5718104253       14.5828434405        9.3284941003
  O        22.8445004887        2.0427583073        21.477065913038
  O        21.6055257008        3.5922112477        22.579445885238
  O        42.0578797188       34.1370472681        23.968746989838
  O        37.9813101930       33.1365584386        21.562247544638
  O        39.2172479205       31.5750943595        22.655567820238
  O        20.3082559430        1.0392677370        22.491814578338
  O        38.0243141693       33.1847584810       10.4157244697
  O        39.2183292318       31.5829275934        9.3275022528
  O        40.6521593510       33.7691078733       10.0601714403
  O        18.2556832510        1.3756828270        7.9968037459
  O        44.6222247462       35.1004962991        22.748528005938
  O        24.2053335612        0.0000357083        9.3208265457
  O        22.7530392256        2.0582044138       10.5840268995
  O        21.6244138047        3.5961709744        9.3426215967
  O        27.4981054934       18.7520725275        21.481355433138
  O        26.7615736125       16.9380327645        22.641688036938
  O        30.6383094705       19.3504564149        8.0553083779
  O        33.5849180862       16.2742688147        21.657982569938
  O        34.2716012005       18.1664311114        22.727178358138
  O        29.5715882383       17.0522977847        22.569061529038
  O        33.5520045006       16.3390389614       10.4149690561
  O        34.2982459574       18.2382855703        9.4060627064
  O        31.6493456322       18.3160092979       10.1521352772
  O        30.3177317497       15.1526752089        8.0852373310
  O        28.5516149173       21.0302092001        22.824526596738
  O        28.5155338088       20.9526310365        9.4071629972
  O        27.4590925569       18.6794413868       10.6586356941
  O        26.6942061327       16.9290655017        9.4129383230
  O        13.1490411782       18.6929009940       10.5875432753
  O        13.9195382093       16.9162390637        9.4051299081
  O        50.5959321444       19.3501639859        8.0205596554
  O        47.6826036934       16.3271126117       10.4172966688
  O        46.9503011553       18.1756418359        9.3255328194
  O        11.0696098874       17.0156294640        9.4896611759
  O        47.6756623353       16.3358893471        21.642615714138
  O        46.9261629109       18.2358773010        22.653639097838
  O        49.5684912630       18.3176967575        21.972134179738
  O        10.3185870728       15.1002420161        7.9971136576
  O        52.6707678181       21.0278781381        9.2418228557
  O        12.1468198993       20.8911569898        22.663036335438
  O        13.1080094135       18.6136613120        21.315413954438
  O        13.9570719704       16.9869725582        22.655283196738
  O        29.9947572944       14.4447433208       10.7318355965
  O        28.0898504265       14.6533263141        9.4963416601
  O        32.0776272724       16.8601698074        8.0744427131
  O        30.9624054410       20.9475199863       10.4103961906
  O        32.9425986273       20.6016099225        9.3365388920
  O        29.5612562380       17.0754395930        9.5769452024
  O        30.8508572649       20.8797274628        21.645146325538
  O        32.8685486385       20.5848431605        22.655838676038
  O        31.6785822095       18.2511086748        21.975850043438
  O        28.2885455366       18.6747967037        8.0700240399
  O        32.4897048060       14.2140286391        9.3288043645
  O        32.4036648906       14.2177650293        22.810971036038
  O        29.9215403060       14.4400084819        21.478526252538
  O        28.0402985364       14.5890149841        22.740738845238
  O        17.8891887597        1.9664990118       10.6628070005
  O        18.9562000188        3.5270561695        9.4079724015
  O        39.1685452482       34.1385198877        7.9971379775
  O        43.2801834578       33.0589075384       10.3316696889
  O        42.0343955154       31.5064498794        9.2415834850
  O        20.3174478002        1.0365037932        9.4803155458
  O        43.2760748526       33.1825193936        21.564691835938
  O        42.0052227100       31.5840866329        22.572794295738
  O        40.5788911935       33.7747229535        21.925552352938
  O        22.3671871157        1.3844901144        7.9979809390
  O        36.6727817955       35.0996598684        9.2333490819
  O        16.4455747153        0.0641463046        22.658055645438
  O        17.9364745066        2.0433370024        21.316173720338
  O        18.9190383702        3.5930935532        22.655757297138
  O        29.7333144661       18.6822868407        19.984678313438
  O        29.8272033801       18.8471086072       12.0738620908
  O        31.2896569425       16.4265108623        20.054420450138
  O        31.2629808377       16.4722183363       12.0722657866
  O        31.6269681141       16.5465400635        17.409211703938
  O        30.0278037338       15.6690441251       14.2212398646
  O        28.8157418283       18.2466553890       14.4292995756
  O        39.4567680944       35.2438360745        19.991764822238
  O        19.1413353064        0.0043854294       11.9905147581
  O        41.9696707053       35.1727156474        20.076946235338
  O        21.6913011298       -0.0693070671       11.8957516058
  O        51.3647228333       18.6143042192        19.995232226138
  O        10.7512988394       18.7471243492       11.9049148987
  O        50.0799028505       16.4127768155        20.081533146738
  O         9.5244315780       16.4830952802       11.9912312458
 Zr         9.2968288611       16.0528074233        22.172232399738
 Zr        49.8362746541       16.0068755214        9.7465343161
 Zr        22.0730420453        0.0293756741        22.178870522738
 Zr        42.4606961355       35.1531595467        9.8007478197
 Zr        29.6031231028       19.0624447034        22.238486314338
 Zr        29.5735856802       19.1745999749        9.8695184713
 Zr        11.0379415359       19.0521227059        9.8277686165
 Zr        11.0437144212       19.1549160208        22.240915629838
 Zr        31.3357703417       16.1093521572        9.8717895420
 Zr        31.3775929829       16.0135379727        22.250487994138
 Zr        18.6008075599       -0.0022106930        9.7635118283
 Zr        18.5063335808       -0.0083497092        22.203279646238
 Zr        12.3019880638       16.3235832981        23.980165408138
 Zr        48.6160206199       18.8330849743        8.0104559486
 Zr        20.3149285475        2.4729069169        23.980381950338
 Zr        40.6426214395       32.6862915593        23.967887626838
 Zr        28.3428131707       16.3373031878        8.0838938080
 Zr        32.6170614282       18.8345272828        8.0525543428
  H        30.3068581981       18.7343835956        17.522866103038
  H        29.0715435170       19.5247404179        16.564172544038
  H        31.0085031278       17.6792152475       15.2920961234
