     570
 i =      239, E =     -4745.5764733295
  C        11.8586771608       14.0533994236        21.731325516138
  C        12.4561492548       12.8905252575        21.012975227238
  C        11.7045192519       12.1716108855        20.071254841738
  C        12.2809483082       11.1094149510        19.378943642438
  C        13.6215212011       10.7396209804        19.606726450438
  C        14.3546476859       11.4432402104        20.580190729338
  C        13.7817073766       12.5081880751        21.271685318638
  C        14.2610767472        9.6489568180        18.833361442738
  C        14.2562364440        9.6567985730        17.411667247338
  C        13.7432278563       10.7590031283        16.657772721338
  C        49.1266398672       21.2334581875        21.869689408938
  C        48.5497170616       22.4012183756        21.142507590638
  C        49.2996896364       23.0683803994        20.161354475938
  C        48.7327420457       24.1074424781        19.428076375238
  C        47.4023114223       24.5093261913        19.656915366038
  C        46.6714918191       23.8607368068        20.670721140638
  C        47.2339571881       22.8159009231        21.400156038338
  C        46.7720370721       25.5869347776        18.859580553938
  C        46.7610936211       25.5573029055        17.437818928038
  C        47.2610210179       24.4422091312        16.694319878338
  C        14.8601662217        8.5704473454        16.698420954738
  C        14.8918047221        8.5969930841        19.510035425238
  C        49.1129482520       21.2034058226       10.1454480772
  C        48.5276576596       22.3649094977       10.8723798187
  C        49.2667742527       23.0252708185       11.8656219558
  C        48.6905099147       24.0598674191       12.5970601013
  C        47.3602144485       24.4569181105       12.3586168710
  C        46.6399536654       23.8123905079       11.3347330122
  C        47.2134326437       22.7764443031       10.6029540423
  C        46.7217861059       25.5318708090       13.1496522713
  C        46.7333742530       25.5281209193       14.5713578041
  C        47.2488304429       24.4289339683       15.3277652676
  C        40.6151366760       17.0834556111       15.3215045654
  C        40.6327165563       17.1043266072       12.5117279229
  C        11.8827667478       14.0863029436       10.2855333331
  C        12.4720642412       12.9106196872       10.9898639043
  C        11.7145558918       12.1774136516       11.9159876227
  C        12.2811698410       11.0949714806       12.5843903896
  C        13.6199478575       10.7211380656       12.3524290567
  C        14.3578714635       11.4366645563       11.3915581120
  C        13.7924287239       12.5178180876       10.7188669613
  C        14.2535511413        9.6243940406       13.1228369985
  C        14.2523519525        9.6444168740       14.5446711295
  C        13.7425874089       10.7534235281       15.2917301339
  C        22.5119850828        3.2445514437        21.741598347338
  C        23.2266547417        4.3484585555        21.039103047638
  C        24.2207462152        4.0652597142        20.090659626138
  C        24.8493766957        5.1023546581        19.406272052638
  C        24.5001378378        6.4456325628        19.649699940438
  C        23.5335984923        6.7202848196        20.634575218138
  C        22.9003030660        5.6849202161        21.317504673838
  C        25.1107866691        7.5499481360        18.874048606738
  C        25.0882371683        7.5430099457        17.452264809438
  C        24.3834544851        6.5468703629        16.704521781938
  C        38.2998625325       31.9296594429        21.844052040438
  C        37.5630774396       30.8377871119        21.146703497938
  C        36.5939169434       31.1369084012        20.177202318338
  C        35.9725963999       30.1126973728        19.468523547938
  C        36.3070427948       28.7652848964        19.706880031938
  C        37.2443078537       28.4734828223        20.715369892038
  C        37.8690726965       29.4963558861        21.423625153738
  C        35.7080759249       27.6724810494        18.909120491838
  C        35.7391591882       27.6935630898        17.488035510938
  C        36.4460642327       28.6988973409        16.755388832238
  C        25.7179612538        8.6103915175        16.733813611138
  C        25.7083740992        8.6239152854        19.545887487538
  C        38.3306471672       31.9610991264       10.1618207902
  C        37.6136183535       30.8908915456       10.9153537037
  C        36.6877051948       31.2061583106       11.9221237056
  C        36.0763316556       30.1935333653       12.6596564146
  C        36.3747105841       28.8380417974       12.4146564766
  C        37.2817011239       28.5326623347       11.3808864044
  C        37.8956062209       29.5419324478       10.6449003753
  C        35.7562915703       27.7423573502       13.1986415513
  C        35.7629667261       27.7301530597       14.6212631588
  C        36.4581753454       28.7161933327       15.3891568618
  C        46.1353740400       26.6207579179       15.2815003519
  C        46.0878779731       26.5802651878       12.4736103793
  C        22.4625651958        3.2563418585       10.2569165569
  C        23.1606782349        4.3647848428       10.9768662055
  C        24.1671924981        4.0777767285       11.9127595075
  C        24.7994902175        5.1071966190       12.6059418504
  C        24.4454719521        6.4535698555       12.3864949003
  C        23.4619625125        6.7339451030       11.4190411324
  C        22.8252294274        5.7047062689       10.7260010158
  C        25.0799160479        7.5500175585       13.1606851665
  C        25.0729258638        7.5425063344       14.5833853667
  C        24.3744322331        6.5477040068       15.3379496370
  C        26.5474131949       17.8538181656        21.785189641038
  C        25.2440380271       17.8963030376        21.059994164538
  C        24.9785969087       18.9103474712        20.126584907638
  C        23.7744172422       18.9245199367        19.427606610738
  C        22.8014578905       17.9292307813        19.645186706838
  C        23.0598393240       16.9388851652        20.610811521238
  C        24.2675244265       16.9183110053        21.305649822438
  C        21.5374895406       17.9144744197        18.871052979738
  C        21.5488067979       17.9087249253        17.449568111938
  C        22.7608056696       17.7976654732        16.697704502338
  C        34.4004150184       17.2466904856        21.884633367538
  C        35.7016583077       17.1704861472        21.156866992538
  C        35.9145781129       16.1761952033        20.188443415838
  C        37.0988002054       16.1480334219        19.455969784038
  C        38.1051942295       17.1100001414        19.673997098738
  C        37.8968464543       18.0808439395        20.672158000738
  C        36.7085345530       18.1168814496        21.399287166838
  C        39.3620324293       17.1070282685        18.888103921538
  C        39.3578674754       17.1108106433        17.465999644238
  C        38.1508503880       17.2286309843        16.707311550338
  C        20.3071399804       17.9304926898        16.734302716738
  C        20.3108614271       17.9069588220        19.546679039438
  C        34.4433712152       17.2327302978       10.1919114612
  C        35.7437599767       17.1328167217       10.9136898541
  C        35.9471661652       16.1534598685       11.8976346035
  C        37.1370102680       16.1229547983       12.6210934380
  C        38.1521475066       17.0703768270       12.3816942232
  C        37.9542608488       18.0224861354       11.3640905557
  C        36.7640835448       18.0584592132       10.6437492842
  C        39.4007385451       17.0870950829       13.1766611486
  C        39.3775509904       17.1025422433       14.5982033406
  C        38.1601006886       17.2232421961       15.3405676030
  C        35.1276362121       26.6501809785       15.3215109860
  C        35.1573696005       26.6785726374       12.5117048824
  C        26.5695327569       17.8275208251       10.3261574352
  C        25.2554505073       17.8782216227       11.0286429724
  C        24.9924985413       18.8874370959       11.9669611174
  C        23.7741410244       18.9171315468       12.6387460414
  C        22.7912857814       17.9378976981       12.3940809577
  C        23.0483985837       16.9538352817       11.4226124330
  C        24.2674711834       16.9217228278       10.7493008237
  C        21.5259991681       17.9229858755       13.1622748001
  C        21.5426586418       17.9115001985       14.5833983368
  C        22.7574978644       17.7976729530       15.3314618642
  C        14.0457819660       17.8322170767       10.2833008347
  C        15.3528576676       17.8970394356       10.9984436894
  C        15.6128971205       18.9100777591       11.9340763390
  C        16.8243728650       18.9359939440       12.6210054690
  C        17.8066244453       17.9515918157       12.3930407381
  C        17.5527315643       16.9645104307       11.4227621052
  C        16.3408312299       16.9341852826       10.7371366706
  C        19.0719871163       17.9336917292       13.1644265216
  C        19.0612673601       17.9250088553       14.5857690837
  C        17.8485939572       17.8230547863       15.3375548050
  C        46.8022391061       17.2177692751       10.1596042045
  C        45.5103217702       17.1504248591       10.9056791208
  C        45.3075059697       16.1693380730       11.8890325482
  C        44.1250255382       16.1421223784       12.6245740317
  C        43.1127851792       17.0959502837       12.4003011972
  C        43.3130919982       18.0572069242       11.3906436674
  C        44.4965537356       18.0882754288       10.6559166299
  C        41.8578433473       17.0975963052       13.1896108617
  C        41.8623084176       17.0983317048       14.6123195956
  C        43.0704784706       17.1961090519       15.3719296170
  C        20.3034937058       17.9318757899       15.3005728447
  C        20.2985020329       17.9139908342       12.4884371283
  C        46.7828240487       17.2307955523        21.878639233838
  C        45.4771036300       17.1228840720        21.164540454438
  C        45.2553420325       16.1201783523        20.208147032438
  C        44.0653922314       16.0896798645        19.484361842238
  C        43.0658546596       17.0588420056        19.698930603438
  C        43.2780249545       18.0316225208        20.693945612438
  C        44.4691887985       18.0683024545        21.412887651438
  C        41.8177207838       17.0770342931        18.902304666638
  C        41.8419237093       17.0859552266        17.480727799238
  C        43.0609446649       17.1870229898        16.738633163838
  C        46.1529969334       26.6371203717        16.716049281238
  C        46.1621429710       26.6561061100        19.525681340638
  C        14.0382050422       17.8266292888        21.695364659238
  C        15.3497657806       17.8906517650        20.992296799538
  C        15.6194433221       18.9089272207        20.066310468438
  C        16.8419290968       18.9406878395        19.400983674738
  C        17.8184964688       17.9533765959        19.638311502438
  C        17.5544827951       16.9611955586        20.599313641438
  C        16.3341984560       16.9289226391        21.268298289438
  C        19.0842516851       17.9317477338        18.871764190738
  C        19.0677239678       17.9229158745        17.451048023638
  C        17.8517711082       17.8217092935        16.703481072838
  C        28.8099192510       14.0856626495       10.3576957062
  C        28.2059882880       12.9121413721       11.0526133685
  C        28.9367551377       12.1714812569       11.9933425423
  C        28.3418185113       11.0987708941       12.6534928476
  C        27.0027834272       10.7414701556       12.3956889096
  C        26.2935117180       11.4628688169       11.4184180519
  C        26.8853667679       12.5365810940       10.7581993522
  C        26.3375178340        9.6603215212       13.1598008268
  C        26.3287849555        9.6830394582       14.5811427401
  C        26.8400568505       10.7913811706       15.3283001915
  C        32.1678631635       21.2494770653       10.1940153647
  C        32.7505193577       22.4226567843       10.9041133120
  C        31.9976121210       23.1065754708       11.8707288817
  C        32.5666260245       24.1517983767       12.5920151302
  C        33.9017778442       24.5395612168       12.3665353257
  C        34.6350807562       23.8760987136       11.3652104177
  C        34.0697338103       22.8254325690       10.6467062480
  C        34.5346745188       25.6110651275       13.1678188672
  C        34.5292944328       25.5735268462       14.5892151774
  C        34.0186553389       24.4556676283       15.3224498069
  C        25.7145209969        8.6066527101       15.2989689333
  C        25.6967996200        8.6120896042       12.4858198597
  C        32.1131626328       21.2149745801        21.926972340038
  C        32.7065019764       22.3656031477        21.185150302138
  C        31.9679944939       23.0088698711        20.178913296638
  C        32.5425382038       24.0341462499        19.430794568538
  C        33.8683531547       24.4478159073        19.669083166138
  C        34.5896865273       23.8147024980        20.700685809638
  C        34.0216157990       22.7818223462        21.443300622338
  C        34.5007587979       25.5330959814        18.881056678938
  C        34.5111975322       25.5337482747        17.457981352338
  C        34.0102090535       24.4363126457        16.689312654738
  C        40.6045339342       17.0824074581        16.756701921038
  C        40.5861763160       17.1060475562        19.567308381438
  C        28.7371107444       14.0633227364        21.808875398538
  C        28.1359719696       12.9131795442        21.073728325938
  C        28.8809104099       12.2072764685        20.116028426738
  C        28.3026541098       11.1524256383        19.413936905638
  C        26.9650681067       10.7741990722        19.646594079538
  C        26.2382371189       11.4650679115        20.634697445338
  C        26.8133905627       12.5223127305        21.336749511338
  C        26.3266398205        9.6839584090        18.870116641438
  C        26.3250462574        9.6954199017        17.448064654538
  C        26.8362294544       10.7984510351        16.694299333938
  C        18.1355015135        3.1809602057       10.3172072930
  C        17.4060449595        4.2781857466       11.0157118847
  C        16.3901607089        3.9997561334       11.9430259127
  C        15.7423538522        5.0397021308       12.6065004973
  C        16.0944123154        6.3834257137       12.3670699440
  C        17.0839849023        6.6530164889       11.4035224999
  C        17.7331584985        5.6157156084       10.7384751526
  C        15.4699728756        7.4910692547       13.1301166582
  C        15.4852481625        7.4903666815       14.5518320730
  C        16.1866857340        6.4966713116       15.3050057744
  C        42.9459311559       31.8595912303       10.0728787898
  C        43.6462874403       30.7719072452       10.8168786235
  C        44.5918851332       31.0932333200       11.8028688802
  C        45.1975362263       30.0876868463       12.5505831247
  C        44.8710941995       28.7346430148       12.3356809990
  C        43.9452270336       28.4202960767       11.3225179606
  C        43.3364568009       29.4254400667       10.5744485697
  C        45.4886063137       27.6553337501       13.1388962119
  C        45.4926204430       27.6808595308       14.5605867700
  C        44.8055136753       28.6889171359       15.3071774199
  C        14.8562531577        8.5628381130       15.2642010418
  C        14.8747696392        8.5628760816       12.4515265291
  C        42.9463280482       31.9616505246        21.798784593038
  C        43.6915677028       30.8854639313        21.085286962638
  C        44.6561784729       31.1913636435        20.113019430638
  C        45.2776842695       30.1717597703        19.395290389038
  C        44.9537769487       28.8214700271        19.632838893838
  C        44.0202188908       28.5238189736        20.643540737738
  C        43.3919854306       29.5405943523        21.355731577038
  C        45.5627763056       27.7240374363        18.847606296638
  C        45.5330789910       27.7173238391        17.426312855238
  C        44.8267067341       28.7075189882        16.673362687438
  C        35.1168102219       26.6300962472        16.756642821238
  C        35.1095444117       26.5919477647        19.566454314438
  C        18.1486417975        3.2469846494        21.696438689538
  C        17.4300302646        4.3438100618        20.987137576638
  C        16.4146368846        4.0525061648        20.063776736738
  C        15.7662898599        5.0831140349        19.388382460538
  C        16.1211183802        6.4283390547        19.610902880538
  C        17.1126877328        6.7117677020        20.567947716838
  C        17.7603927680        5.6828747942        21.247720980938
  C        15.4905890055        7.5240289613        18.838458194938
  C        15.4962881772        7.5072921329        17.417320197038
  C        16.1929719894        6.5055414499        16.670612223438
  H        10.6723868646       12.4656986999        19.894202378838
  H        11.6947293608       10.5508896525        18.652384137038
  H        15.3916998395       11.1687255264        20.761927163138
  H        14.3511451643       13.0713929703        22.007156524038
  H        13.3764167847       11.6312190074        17.191070297938
  H        50.3223177187       22.7481767415        19.976457626338
  H        49.3191858288       24.6225568765        18.670364140638
  H        45.6421391874       24.1618314581        20.854147749538
  H        46.6630745385       22.2909308652        22.162533626438
  H        47.6296485126       23.5758635149        17.235991536138
  H        14.8722943199        8.5883112901        20.598345402238
  H        50.2867295811       22.7022174154       12.0606775940
  H        49.2688671128       24.5751167769       13.3607298524
  H        45.6107004206       24.1099897441       11.1454086445
  H        46.6527412130       22.2546104953        9.8310738903
  H        47.6077082768       23.5518450718       14.7968884468
  H        40.6387024135       17.0705218578       11.4238977491
  H        48.6870941585       14.0951742214        23.789786265538
  H        10.6811238375       12.4665424974       12.0935073443
  H        11.6894378185       10.5245737698       13.2971321236
  H        15.3933020438       11.1588041723       11.2055770240
  H        14.3648195181       13.0872073432        9.9903938127
  H        13.3759579563       11.6221182443       14.7530907891
  H        47.9301475809       14.2183432177        9.7109983179
  H        47.7800105057       14.3741522367        22.485183727238
  H        49.0829580190       18.5523456115       10.8672616044
  H        10.4158589567       14.1343102975        7.9988520865
  H        24.4788002899        3.0258556474        19.900367091438
  H        25.6207267268        4.8816674422        18.671598674938
  H        23.2558612074        7.7541018985        20.829312271838
  H        22.1323129431        5.8884750730        22.059775993138
  H        23.8180858503        5.7923182201        17.243617768638
  H        36.3534626555       32.1790137593        19.980414166238
  H        35.2217727907       30.3468275743        18.717038991538
  H        37.5088922491       27.4355718217        20.906610266638
  H        38.6194502803       29.2802372833        22.180338283938
  H        37.0110850461       29.4458189877        17.305319327538
  H        25.7381911118        8.6082338808        20.633888896938
  H        36.4663612328       32.2518564461       12.1235130901
  H        35.3522183013       30.4461215501       13.4311336891
  H        37.5262198462       27.4908508721       11.1843110708
  H        38.6163292703       29.3085986412        9.8648524492
  H        37.0336821960       29.4755454032       14.8674541048
  H        46.1094288825       26.5877713122       11.3855782701
  H        44.6682240397       35.1161539471        23.803779244438
  H        24.4447334633        3.0392729024       12.0785581294
  H        25.5831813992        4.8773013756       13.3246752361
  H        23.1766773704        7.7686964708       11.2403588761
  H        22.0502252733        5.9187844841        9.9936229687
  H        23.8016768305        5.7941765049       14.8051603030
  H        44.9535833091       34.3902866377        9.6951759265
  H        44.9015629213       34.2067266236        22.480473329738
  H        40.6662387038       33.2094136664       10.8535443392
  H        23.1505130969        1.9579558712        8.0048394516
  H        25.7267759485       19.6826185909        19.964504486238
  H        23.5710477852       19.7141495459        18.707442074438
  H        22.3163283140       16.1637848293        20.784977953538
  H        24.4829933982       16.1408528797        22.034831795638
  H        23.6984680379       17.6803413393        17.233348445138
  H        35.1341158467       15.4368119129        20.021318704438
  H        37.2618317321       15.3713927488        18.711681320938
  H        38.6653224695       18.8311053286        20.846783504838
  H        36.5308699481       18.8849328808        22.148615287138
  H        37.2118780352       17.3574055228        17.238262785238
  H        20.3113416011       17.9356343279        20.634812652438
  H        35.1549760332       15.4346479765       12.0946238072
  H        37.2926649231       15.3604512480       13.3811504274
  H        38.7301698179       18.7609630516       11.1732798558
  H        36.5920070860       18.8134714088        9.8805660185
  H        37.2276544577       17.3467134874       14.7970740808
  H        35.1303057299       26.7081867956       11.4240723919
  H        28.4858985521       21.1286798254        23.971457910938
  H        25.7555589013       19.6398530433       12.1521303132
  H        23.5685138059       19.7029849326       13.3623118742
  H        22.2961480188       16.1918334650       11.2293769856
  H        24.4836909545       16.1507358243       10.0136709654
  H        23.6929122449       17.6795649456       14.7925739534
  H        29.0061305180       21.7140130554        9.7760696811
  H        29.1281041130       21.7930073308        22.607225134438
  H        32.0490506652       18.5332868948       11.0244409700
  H        27.3476847616       19.0804897817        8.1119634069
  H        14.8547610097       19.6703126829       12.1080750321
  H        17.0246176802       19.7249850803       13.3427331217
  H        18.3031871890       16.1982815250       11.2394897837
  H        16.1297597439       16.1592713137       10.0041452057
  H        16.9096422740       17.7129364169       14.8030104931
  H        46.0939232308       15.4404419809       12.0704398334
  H        43.9711918353       15.3724576213       13.3777881086
  H        42.5413878993       18.8030740980       11.2115503072
  H        44.6647267339       18.8454479712        9.8935093388
  H        44.0123341539       17.3102282458       14.8428541670
  H        20.2984153514       17.9450188160       11.4003507096
  H        46.0314971794       15.3786760855        20.032744871338
  H        43.8981339994       15.3109670800        18.743356137438
  H        42.5127154712       18.7853461176        20.867253017338
  H        44.6526495081       18.8387827553        22.157801395038
  H        43.9955850839       17.2928894812        17.281771162538
  H        46.1990399685       26.6827370148        20.613122951038
  H        52.7413848069       21.0627284388        8.1946373383
  H        14.8619973686       19.6686348056        19.886902862038
  H        17.0549309623       19.7333100284        18.686992057638
  H        18.3024303366       16.1935115643        20.786448616838
  H        16.1119854200       16.1527515832        21.996474206938
  H        16.9152043581       17.7103833468        17.241670058638
  H        52.3229896907       21.6738775584        22.284296204538
  H        52.0140637629       21.7030241463        9.4955083530
  H        49.0671736015       18.6077795060        21.194028179938
  H        13.2473580641       19.0161081662        23.965465247738
  H        29.9682857727       12.4516403443       12.1948655898
  H        28.9104496883       10.5244267454       13.3816885575
  H        25.2586158858       11.1977288039       11.2120801350
  H        26.3343742983       13.1152030620       10.0208645631
  H        27.2093115631       11.6584522954       14.7888031860
  H        30.9731004559       22.7918442637       12.0546921486
  H        31.9808974962       24.6800334429       13.3411644885
  H        35.6679205928       24.1675596395       11.1859433050
  H        34.6419380195       22.2857980319        9.8958095942
  H        33.6566919173       23.5917816283       14.7722845941
  H        25.7238099059        8.5954793071       11.3976908161
  H        30.9506252963       22.6755562032        19.985368355438
  H        31.9620614141       24.5323111044        18.657312028738
  H        35.6164606766       24.1205173360        20.890604226738
  H        34.5879277811       22.2707243315        22.218551322438
  H        33.6422367205       23.5574129065        17.211337596038
  H        40.5794585406       17.0760371653        20.655278272938
  H        32.5201443467       14.1468960160        8.2611858529
  H        29.9151355567       12.4943909065        19.939759503438
  H        28.8874401356       10.6028041086        18.679495038038
  H        25.2035886938       11.1850963099        20.821833838938
  H        26.2479101812       13.0725578879        22.085137338938
  H        27.2013107398       11.6713341654        17.227617484438
  H        33.2890935628       14.1949347398        22.412624601338
  H        33.4060493737       14.4038689951        9.6106568579
  H        32.2944076407       18.7237678891        21.291871107938
  H        30.2342703486       14.1958456035        8.0811774380
  H        16.1179892372        2.9632451438       12.1292289152
  H        14.9527494968        4.8202736989       13.3219760124
  H        17.3665677121        7.6858920305       11.2106290885
  H        18.5153406301        5.8184169490       10.0107959950
  H        16.7531831256        5.7392956202       14.7714930931
  H        44.8281534801       32.1403222895       11.9770417738
  H        45.9374351601       30.3414240908       13.3065023022
  H        43.6825387806       27.3782254688       11.1524087202
  H        42.5997948429       29.1901635807        9.8098072222
  H        44.2301906325       29.4366861949       14.7688380991
  H        14.8510849181        8.5461314469       11.3633050405
  H        44.8998152239       32.2340419190        19.921670212738
  H        46.0246471155       30.4129705555        18.642102990538
  H        43.7631609583       27.4840992744        20.835021201938
  H        42.6454469026       29.3178498481        22.114154069638
  H        44.2682190211       29.4704202438        17.207950721338
  H        35.0698426303       26.6006488456        20.654061248838
  H        36.6051732588       35.1340664866        8.1805686830
  H        16.1434361761        3.0129310760        19.894222285438
  H        14.9738256424        4.8562498859        18.678458150138
  H        17.3963630033        7.7472232642        20.744641371138
  H        18.5434443939        5.8933468902        21.972287569938
  H        16.7643476299        5.7552551524        17.209047180138
  H        36.2788475112       34.4824331192        22.262966119438
  H        36.3808331119       34.2091043409        9.4995416354
  H        40.5794277227       33.2023232534        21.144107742138
  H        17.4709646457        1.9474563414        23.963871141138
  H        29.0992073587       19.3445764063       12.5910360303
  H        28.6701470274       19.3093471958        19.771302340338
  H        30.6145503053       15.4618180834        19.784079030438
  H        31.2807756493       15.6004505955       12.5272126142
  H        28.5338579183       17.9732069992       15.0442596233
  H        30.0384811110       15.5977180943       14.9651773432
  H        32.0602356213       15.9540166847        18.174708627138
  H        32.8650973986       19.0502627292       16.5696438300
  H        18.8531946654        0.8688993445       12.3352234976
  H        40.5280420285       35.2289997816        19.941863175738
  H        42.3237281352       34.4185699757        19.580539276438
  H        22.0877539477        0.6921637102       12.3516871898
  H        11.5966696646       18.7125250322       12.3826825225
  H        52.2647910859       18.4314963185        19.667351870138
  H        49.2551821938       16.4761608961        19.573814672638
  H        10.1497517336       15.7983889657       12.2927397387
  H        50.8499922087       17.6928442448        19.943709460338
  H        10.0457414048       17.3947988489       12.0518823657
  H        20.2144033233        0.0022675359       12.0420821168
  H        39.1836345441       36.1242847983        19.675887426338
 Ni        30.4385734225       17.8064369939        19.984084587738
 Ni        31.7944384751       16.9782075946       15.743676392638
 Ni        30.5639185118       18.7702829021       15.904989164438
 Ni        30.2270784772       17.4532834965       13.3235907184
  O        10.6498425040       14.3651727894        21.475588312838
  O        12.6130204326       14.6573346923        22.573680445838
  O        49.1475378712       16.8458706767        23.979497889938
  O        50.3500172907       20.9362294578        21.637951663038
  O        48.3483668743       20.5932034143        22.655717592838
  O        11.0511103521       17.0539831358        22.490457903838
  O        50.3207042001       20.8817155213       10.4068715551
  O        48.3466401057       20.5866544522        9.3270449554
  O        49.5433066193       18.2484222101       10.0683295608
  O        12.3587527953       18.6247764828        7.9997903915
  O        48.6931610462       14.1486851264        22.741054639138
  O         8.2098028718       14.2105015657        9.3225820274
  O        10.7352211230       14.5068611236       10.6644159182
  O        12.5716766744       14.5827104480        9.3286590291
  O        22.8445424832        2.0430305613        21.476820316838
  O        21.6062232736        3.5928073556        22.578783026438
  O        42.0581723244       34.1374622834        23.968907514238
  O        37.9816746665       33.1374602886        21.562614329538
  O        39.2192780120       31.5771744732        22.657568624338
  O        20.3085187638        1.0399352379        22.491947243138
  O        38.0245745958       33.1856045009       10.4156073410
  O        39.2178016931       31.5826047833        9.3282688234
  O        40.6522929056       33.7693041942       10.0603651986
  O        18.2556906694        1.3763407691        7.9967824410
  O        44.6222307372       35.1005446382        22.748574035838
  O        24.2053653192        0.0000372182        9.3208097213
  O        22.7532162403        2.0580846913       10.5838516356
  O        21.6247991679        3.5964957400        9.3431548457
  O        27.4163372354       18.7511228998        21.493816510838
  O        26.6962425096       16.9257319829        22.652134525038
  O        30.6672845080       19.4035987137        8.0715309169
  O        33.5414950581       16.3329050069        21.650579126938
  O        34.2187461846       18.2475648955        22.659672315638
  O        29.5695091710       17.0759716851        22.581650078338
  O        33.5554506320       16.3398851098       10.4133786885
  O        34.3047330554       18.2389250792        9.4106856557
  O        31.6476986921       18.3173072667       10.1648839738
  O        30.3265143594       15.1627700729        8.0771330259
  O        28.5094256784       21.0989689518        22.899612897438
  O        28.5146569110       20.9557719206        9.4161442865
  O        27.4568676137       18.6799311007       10.6598428312
  O        26.6929789698       16.9292081211        9.4155634751
  O        13.1468158597       18.6936009092       10.5861984777
  O        13.9177027972       16.9158266893        9.4037535035
  O        50.5957236795       19.3502680472        8.0207859546
  O        47.6819412307       16.3273911738       10.4177693770
  O        46.9494683719       18.1755504761        9.3262091702
  O        11.0687986360       17.0160117205        9.4896008882
  O        47.6739704565       16.3358990101        21.642196289838
  O        46.9257516674       18.2359225268        22.653221736838
  O        49.5685099062       18.3177351220        21.972118263338
  O        10.3184226378       15.1001551507        7.9972281267
  O        52.6707055712       21.0279757536        9.2418012807
  O        12.1467833392       20.8914218544        22.663154622838
  O        13.1041449747       18.6140907479        21.316177580238
  O        13.9541699290       16.9859072763        22.655675687838
  O        30.0011395603       14.4337178377       10.6619370884
  O        28.0785218141       14.6589798984        9.4808575879
  O        32.1019758485       16.9206325314        8.0509288386
  O        30.9530285433       20.9535247636       10.4207199045
  O        32.9544022587       20.5991381483        9.4121881597
  O        29.5562601310       17.0819981634        9.5688423930
  O        30.8794459921       20.9641730577        21.749881862838
  O        32.9101768452       20.5150981919        22.654686999038
  O        31.5233649798       18.2486181037        21.648738254038
  O        28.2330013905       18.6832865355        8.0787445601
  O        32.4921854006       14.2153195502        9.3293916159
  O        32.4035447720       14.2187514136        22.812011677738
  O        29.9137533622       14.4398128441        21.476188180738
  O        28.0373791018       14.5882131190        22.739787832338
  O        17.8891963293        1.9666058787       10.6627613576
  O        18.9562290387        3.5271482330        9.4079504914
  O        39.1685899574       34.1388301832        7.9972087813
  O        43.2801850162       33.0589874774       10.3317521730
  O        42.0344936537       31.5064284502        9.2417260635
  O        20.3176018800        1.0367555898        9.4800850330
  O        43.2761075883       33.1825676715        21.564705012638
  O        42.0053090376       31.5841055312        22.572888877538
  O        40.5792386264       33.7754010059        21.925942862538
  O        22.3673761960        1.3847426021        7.9979516637
  O        36.6727851089       35.0997437717        9.2332577109
  O        16.4456952211        0.0643221194        22.658099469038
  O        17.9364666967        2.0433638172        21.316241361638
  O        18.9191797311        3.5930887019        22.655723741138
  O        29.5610440847       19.4341146468        20.143375527338
  O        29.7876385587       18.8926623524       12.0684782898
  O        31.3078286894       16.1193619056        19.987519168138
  O        31.2177440170       16.4203548979       11.9985726651
  O        32.4439441739       15.6084853875        17.322585414538
  O        30.7957246679       15.9810995511       14.4876251794
  O        32.1512745841       18.4764413406       16.9013851712
  O        29.2296050778       18.5306471340       14.6504060151
  O        39.4568235897       35.2438100627        19.991803297938
  O        19.1411873382        0.0044278812       11.9905599131
  O        41.9695822528       35.1727086291        20.076938500738
  O        21.6913752969       -0.0692280664       11.8959604310
  O        51.3647686742       18.6144404738        19.995031604638
  O        10.7509258417       18.7471309450       11.9050575617
  O        50.0793742083       16.4126802250        20.081529788438
  O         9.5238691000       16.4832337558       11.9911683048
 Zr         9.2974111723       16.0529547681        22.172016675538
 Zr        49.8365206683       16.0069683110        9.7465761688
 Zr        22.0732564834        0.0300134257        22.178803203338
 Zr        42.4608640965       35.1538583064        9.8010335771
 Zr        29.5216339535       19.1507466947        22.304812700538
 Zr        29.5611048971       19.1645040858        9.9012583786
 Zr        11.0380365535       19.0524231645        9.8279849713
 Zr        11.0437916969       19.1552326579        22.240920038038
 Zr        31.3250261894       16.1089659319        9.8730925853
 Zr        31.3839953473       16.0080645042        22.267301427138
 Zr        18.6009594631       -0.0015237115        9.7633290309
 Zr        18.5067223134       -0.0073660407        22.203479045538
 Zr        12.3015515196       16.3232237517        23.980591654938
 Zr        48.6166531690       18.8330523278        8.0104089251
 Zr        20.3155995694        2.4738710139        23.980464345938
 Zr        40.6433508160       32.6872306328        23.968606963938
 Zr        28.3256280851       16.3484056720        8.0711735656
 Zr        32.6284177728       18.8769623142        8.1329445643
  H        29.5779865284       17.4249347823        18.883399641338
  H        33.4007134309       15.7257239338        17.448647136938
