     568
 i =      116, E =     -4744.4319304302
  C        11.8587127806       14.0535823494        21.731345859738
  C        12.4562495204       12.8906476739        21.013034688038
  C        11.7045731416       12.1717136006        20.071370012538
  C        12.2809634964       11.1095050173        19.379030737738
  C        13.6215372000       10.7397174654        19.606785057638
  C        14.3546982701       11.4433191621        20.580233442138
  C        13.7817965389       12.5082997068        21.271726872338
  C        14.2610797022        9.6490415076        18.833410648238
  C        14.2564163300        9.6569636758        17.411711205538
  C        13.7432588112       10.7590958629        16.657810960138
  C        49.1266376594       21.2332639530        21.869556764738
  C        48.5498404206       22.4011464817        21.142456662438
  C        49.2998871532       23.0684519918        20.161459004338
  C        48.7329538040       24.1075594915        19.428228766238
  C        47.4024086456       24.5091999854        19.656829898838
  C        46.6714407092       23.8603380707        20.670341147538
  C        47.2338889852       22.8154561208        21.399729349338
  C        46.7722076904       25.5869014364        18.859536643938
  C        46.7612731700       25.5573066221        17.437773227338
  C        47.2611842762       24.4421994588        16.694285057438
  C        14.8603583987        8.5706247704        16.698450775538
  C        14.8918220290        8.5970745771        19.510064051038
  C        49.1131631991       21.2034089635       10.1453448736
  C        48.5278171338       22.3647784062       10.8724744351
  C        49.2670511191       23.0254731884       11.8654034744
  C        48.6907315469       24.0600259896       12.5968670363
  C        47.3603297574       24.4568333778       12.3586100394
  C        46.6399102092       23.8119422530       11.3350813139
  C        47.2134477575       22.7760264506       10.6032986677
  C        46.7218985990       25.5318095810       13.1496379162
  C        46.7336001477       25.5281576904       14.5713420563
  C        47.2489631588       24.4289146741       15.3277315427
  C        40.6208374192       17.0821408004       15.3082517231
  C        40.6309507538       17.0979152290       12.4983826457
  C        11.8829545824       14.0865631246       10.2855031840
  C        12.4722948856       12.9107635182       10.9897516738
  C        11.7147981540       12.1775980065       11.9159040835
  C        12.2813883590       11.0951406912       12.5843197338
  C        13.6201934003       10.7213840207       12.3524551180
  C        14.3581428777       11.4369142128       11.3916071806
  C        13.7927154294       12.5180868327       10.7189183618
  C        14.2537993929        9.6246257701       13.1228549801
  C        14.2525720376        9.6446139987       14.5446935721
  C        13.7427131178       10.7535687261       15.2917665005
  C        22.5114600245        3.2444093829        21.741838957338
  C        23.2254082441        4.3485754544        21.039526502338
  C        24.2217741740        4.0659584862        20.093405833138
  C        24.8499076069        5.1035175481        19.409364795938
  C        24.4972791168        6.4461517763        19.650998568238
  C        23.5283860709        6.7202821231        20.633585819338
  C        22.8957909391        5.6845034336        21.316242318038
  C        25.1058083726        7.5512352149        18.875305661038
  C        25.0833704321        7.5430163000        17.453518239938
  C        24.3843602415        6.5432225633        16.705026511738
  C        38.3021907058       31.9291503218        21.838995998538
  C        37.5716837955       30.8396908378        21.130050663038
  C        36.6094718149       31.1436766403        20.154851338138
  C        35.9912261063       30.1236619987        19.437003831438
  C        36.3205970614       28.7744283726        19.672340844738
  C        37.2530560842       28.4778058185        20.684250200738
  C        37.8751635826       29.4965393919        21.401236565138
  C        35.7186431667       27.6830837981        18.873889348438
  C        35.7490402315       27.7005208527        17.452431877638
  C        36.4515802672       28.7058281035        16.715933465538
  C        25.7081253244        8.6129819660        16.735088047538
  C        25.7007331003        8.6267532394        19.547392595438
  C        38.3287508321       31.9628652189       10.1556897254
  C        37.6063133697       30.8906136418       10.8970797326
  C        36.6762595043       31.2006577560       11.9010251173
  C        36.0651916273       30.1829598381       12.6305855998
  C        36.3704349736       28.8303730384       12.3794685247
  C        37.2780787894       28.5302925257       11.3453203797
  C        37.8910995557       29.5444335633       10.6169025035
  C        35.7623368355       27.7317234027       13.1633698250
  C        35.7711462586       27.7256703583       14.5853111115
  C        36.4618448266       28.7181302590       15.3493564755
  C        46.1356041174       26.6208062594       15.2814674393
  C        46.0879503193       26.5801652064       12.4735741954
  C        22.4633375224        3.2558070961       10.2564053319
  C        23.1633262654        4.3636808238       10.9756935096
  C        24.1704216245        4.0757513651       11.9106917708
  C        24.8036907987        5.1045177508       12.6040872241
  C        24.4500328951        6.4510952938       12.3856360432
  C        23.4665529797        6.7323905541       11.4183984613
  C        22.8289279183        5.7038706508       10.7251280308
  C        25.0828833542        7.5476699471       13.1610665753
  C        25.0724966700        7.5405369160       14.5839354346
  C        24.3773820134        6.5430769897       15.3382996670
  C        26.6201259728       17.8634988590        21.769551048338
  C        25.3123963983       17.9115467980        21.046071366338
  C        25.0474123854       18.9153661776        20.101050924438
  C        23.8340426963       18.9361915906        19.415769393738
  C        22.8481347607       17.9572892405        19.654589733038
  C        23.1083887857       16.9766755890        20.630432401638
  C        24.3240551248       16.9500524431        21.312519005438
  C        21.5750375806       17.9438699804        18.889922808938
  C        21.5759948138       17.9251895760        17.467435004138
  C        22.7825339099       17.8052828721        16.708056510038
  C        34.4379363423       17.1924191924        21.910157569338
  C        35.7304688129       17.1437003787        21.163273596838
  C        35.9350436172       16.1696516558        20.173300641538
  C        37.1151113012       16.1534692960        19.434806772738
  C        38.1232291788       17.1099192858        19.665689522238
  C        37.9207170954       18.0651612131        20.679973248738
  C        36.7379277060       18.0866076508        21.416211635438
  C        39.3767184163       17.1140077720        18.876865925338
  C        39.3692927690       17.1150912504        17.454870024338
  C        38.1602745910       17.2285186570        16.698827555238
  C        20.3298970092       17.9416675235        16.757919875038
  C        20.3499919831       17.9437966868        19.571476138338
  C        34.4385490174       17.2363700208       10.1886374572
  C        35.7395440565       17.1358696725       10.9119965168
  C        35.9466100006       16.1514768912       11.8896875939
  C        37.1379069128       16.1180137564       12.6106556397
  C        38.1507215592       17.0682061834       12.3742813248
  C        37.9497194645       18.0257366106       11.3625255667
  C        36.7581073190       18.0638186017       10.6445717682
  C        39.4009817494       17.0823378437       13.1663154477
  C        39.3816702019       17.0987189544       14.5876789683
  C        38.1659041034       17.2188152157       15.3322919143
  C        35.1431765402       26.6446906650       15.2884570093
  C        35.1745576298       26.6604625722       12.4791813737
  C        26.5739135194       17.8285277609       10.3256515726
  C        25.2590105497       17.8731697609       11.0338117440
  C        24.9926066664       18.8828649259       11.9709889615
  C        23.7748713409       18.9096976802       12.6452938123
  C        22.7935256005       17.9271504036       12.4051011176
  C        23.0542614482       16.9420399966       11.4355156624
  C        24.2730047019       16.9129614951       10.7600224691
  C        21.5292309966       17.9111254580       13.1773339687
  C        21.5524357581       17.9066206913       14.5988571818
  C        22.7707312140       17.7959930108       15.3418231289
  C        14.0468141469       17.8289988401       10.2888160160
  C        15.3513946032       17.8866740818       11.0141056592
  C        15.6082217846       18.8912931098       11.9602065856
  C        16.8172497559       18.9131730635       12.6530214113
  C        17.8039157511       17.9332544268       12.4221001231
  C        17.5518006394       16.9527252539       11.4439474880
  C        16.3422181071       16.9263210575       10.7525991446
  C        19.0729228765       17.9177888094       13.1915060978
  C        19.0709547707       17.9178306817       14.6140539531
  C        17.8636018754       17.8195989621       15.3748879411
  C        46.8025502409       17.2159858896       10.1566609872
  C        45.5090554151       17.1451856068       10.8967292422
  C        45.3043989753       16.1609485078       11.8762902163
  C        44.1203991678       16.1324210015       12.6084831077
  C        43.1100601920       17.0879093880       12.3838589320
  C        43.3112289378       18.0508191843       11.3762951324
  C        44.4962240748       18.0832933207       10.6448552563
  C        41.8569377390       17.0911318528       13.1739806111
  C        41.8659230627       17.0950744274       14.5962320940
  C        43.0763054937       17.1954273393       15.3520427907
  C        20.3173594654       17.9314259367       15.3230515593
  C        20.2975833626       17.8969872929       12.5100187685
  C        46.7851145620       17.2325380443        21.875992208738
  C        45.4839296775       17.1286750422        21.155368269438
  C        45.2659694827       16.1284561537        20.195529496038
  C        44.0789503113       16.1003694127        19.467364630538
  C        43.0795212793       17.0697106860        19.680970940638
  C        43.2888603615       18.0413353956        20.677627472838
  C        44.4767926086       18.0754582480        21.401368376738
  C        41.8316676567       17.0871922817        18.885440490438
  C        41.8531835240       17.0920145728        17.464036871538
  C        43.0703618640       17.1909093206        16.718880490038
  C        46.1533264188       26.6372183970        16.716015730438
  C        46.1622597243       26.6560254062        19.525656860638
  C        14.0451293718       17.8319527584        21.698732191638
  C        15.3658855937       17.9073267683        21.008201782138
  C        15.6385607767       18.9244324264        20.081281509338
  C        16.8673066142       18.9632060643        19.426200341138
  C        17.8507315954       17.9840537058        19.672407351438
  C        17.5848946841       16.9958020578        20.637606810838
  C        16.3581480039       16.9565129185        21.296209004838
  C        19.1179832854       17.9614010351        18.903672958138
  C        19.0944528399       17.9392826625        17.482180547738
  C        17.8750546875       17.8291725686        16.740898423938
  C        28.7940644226       14.1170031867       10.3994824054
  C        28.1948333980       12.9375177879       11.0883239741
  C        28.9229557286       12.1984353474       12.0321310342
  C        28.3319443808       11.1147062249       12.6777159868
  C        26.9985314021       10.7470897449       12.4049494333
  C        26.2926849714       11.4672614398       11.4245009744
  C        26.8816282472       12.5496509482       10.7764277030
  C        26.3338628137        9.6615901083       13.1626028253
  C        26.3177703767        9.6868307832       14.5835487975
  C        26.8170001669       10.8005136744       15.3307406544
  C        32.1804535977       21.2396493753       10.1447231975
  C        32.7765379267       22.4053379888       10.8631532452
  C        32.0272274137       23.0875791427       11.8339632098
  C        32.5980951961       24.1272925635       12.5615000462
  C        33.9338324296       24.5132963050       12.3381361726
  C        34.6657371675       23.8502172374       11.3352977456
  C        34.0972649550       22.8045183398       10.6101901101
  C        34.5617740243       25.5895196880       13.1380629213
  C        34.5543555031       25.5601522134       14.5594951160
  C        34.0504225270       24.4420790280       15.2959937421
  C        25.7072391648        8.6081019663       15.3004291864
  C        25.6995898926        8.6105671170       12.4870220766
  C        32.1198284325       21.1963663093        21.841937863338
  C        32.7089927256       22.3520861464        21.102232733938
  C        31.9780136932       23.0012288980        20.095311495038
  C        32.5525125392       24.0418549597        19.369347663938
  C        33.8731092424       24.4595265393        19.628085024638
  C        34.5861530854       23.8221883940        20.661525093738
  C        34.0149318749       22.7793467575        21.386454403838
  C        34.5099979268       25.5453493308        18.847986051538
  C        34.5278384320       25.5374894684        17.425978358038
  C        34.0378981154       24.4314707692        16.662427927738
  C        40.6140783445       17.0857149522        16.743131345738
  C        40.6020779961       17.1161419251        19.553266812438
  C        28.7249636661       14.0964508574        21.771077941838
  C        28.1204073506       12.9420674157        21.041261942938
  C        28.8612483127       12.2346666262        20.082192784138
  C        28.2854898482       11.1683448362        19.395603090838
  C        26.9521283011       10.7836004212        19.641593531538
  C        26.2289600861       11.4768388829        20.630118294138
  C        26.8039643943       12.5423761040        21.320066150638
  C        26.3139484225        9.6892073880        18.871215176438
  C        26.3085018150        9.7012632219        17.449436632438
  C        26.8104909476       10.8087349422        16.696321017138
  C        18.1354387008        3.1810243293       10.3171323583
  C        17.4060451247        4.2782713305       11.0156633419
  C        16.3904450294        3.9998727897       11.9433008309
  C        15.7427006017        5.0398275964       12.6068220306
  C        16.0944868401        6.3835675572       12.3670580985
  C        17.0836802822        6.6531270189       11.4031072832
  C        17.7327918245        5.6158100004       10.7380330392
  C        15.4701966446        7.4912611956       13.1301361589
  C        15.4855184042        7.4905850762       14.5518530105
  C        16.1870788229        6.4969760535       15.3050319958
  C        42.9458916120       31.8595021443       10.0728753678
  C        43.6462901948       30.7718546757       10.8168177750
  C        44.5918570408       31.0931870227       11.8028532319
  C        45.1975886602       30.0876432042       12.5504963874
  C        44.8711438103       28.7345784908       12.3356603731
  C        43.9452755149       28.4202284709       11.3224923473
  C        43.3364339978       29.4253679331       10.5744695003
  C        45.4887467482       27.6552899098       13.1388458020
  C        45.4929166897       27.6809352914       14.5605364513
  C        44.8058138887       28.6889792014       15.3071460151
  C        14.8565836810        8.5630943457       15.2642254887
  C        14.8749279925        8.5630506915       12.4515602031
  C        42.9464520148       31.9615677097        21.798725115238
  C        43.6916697554       30.8854581058        21.085236573238
  C        44.6562440740       31.1913601973        20.112912366738
  C        45.2777547021       30.1717624704        19.395197595838
  C        44.9539679236       28.8214431130        19.632835416138
  C        44.0204726560       28.5237871324        20.643605534838
  C        43.3922251819       29.5405614518        21.355781107338
  C        45.5630068817       27.7240417526        18.847595135438
  C        45.5333547266       27.7173782537        17.426297275338
  C        44.8270519435       28.7076093499        16.673329162838
  C        35.1308100235       26.6325635766        16.723203289138
  C        35.1166559997       26.6052491284        19.532889486638
  C        18.1486247295        3.2469749210        21.696437482438
  C        17.4300031233        4.3438446955        20.987190330038
  C        16.4148308621        4.0525708696        20.063581222838
  C        15.7665219810        5.0831997367        19.388181477038
  C        16.1211404875        6.4284401413        19.610941717338
  C        17.1124512046        6.7118247203        20.568270601138
  C        17.7601244487        5.6829154029        21.248047349738
  C        15.4906635941        7.5241409814        18.838482030038
  C        15.4965647205        7.5075160045        17.417344603038
  C        16.1933140851        6.5058078408        16.670639301538
  H        10.6724333182       12.4658191855        19.894363840538
  H        11.6946755861       10.5509909726        18.652514412138
  H        15.3917405011       11.1687523982        20.761948125638
  H        14.3512599448       13.0715635336        22.007133320838
  H        13.3762260236       11.6312062372        17.191131264238
  H        50.3225988129       22.7484154484        19.976742001038
  H        49.3194366402       24.6228202960        18.670647827938
  H        45.6419414506       24.1610982950        20.853491373438
  H        46.6628605680       22.2902308498        22.161823329338
  H        47.6296191548       23.5757776674        17.235968273438
  H        14.8721400479        8.5883188571        20.598371018038
  H        50.2870857187       22.7025982870       12.0603240878
  H        49.2691167421       24.5754614851       13.3603884340
  H        45.6105012496       24.1091736972       11.1460263107
  H        46.6525771273       22.2538614059        9.8317725965
  H        47.6076836057       23.5517658111       14.7968435334
  H        40.6344285990       17.0634319733       11.4105697751
  H        48.6871032816       14.0950050344        23.789825448838
  H        10.6813257623       12.4666727216       12.0933069069
  H        11.6896014069       10.5247392303       13.2970153191
  H        15.3935720791       11.1590264357       11.2056633609
  H        14.3650458443       13.0874611272        9.9903823825
  H        13.3758769394       11.6221748965       14.7531231987
  H        47.9301248709       14.2185860542        9.7107057858
  H        47.7799533478       14.3736844778        22.485136575238
  H        49.0827557119       18.5519070331       10.8670727504
  H        10.4159952486       14.1343732106        7.9987245825
  H        24.4818869736        3.0267666944        19.904759797038
  H        25.6232072649        4.8837573220        18.676467631438
  H        23.2484015137        7.7538447770        20.826383851038
  H        22.1259131274        5.8870372264        22.056815531038
  H        23.8219951091        5.7859678811        17.243511110938
  H        36.3710281176       32.1868816787        19.961502198938
  H        35.2447863108       30.3629400969        18.682783684338
  H        37.5149415434       27.4387536195        20.873035077838
  H        38.6206563879       29.2753626047        22.161376230238
  H        37.0145333164       29.4568047480        17.262507176038
  H        25.7319963561        8.6103667877        20.635345385138
  H        36.4533158977       32.2451283711       12.1068224964
  H        35.3382578672       30.4282467747       13.4016927555
  H        37.5250865987       27.4897825627       11.1452312551
  H        38.6144145648       29.3183330124        9.8372865315
  H        37.0338039594       29.4780714711       14.8247978313
  H        46.1093302475       26.5875357475       11.3855383543
  H        44.6681863087       35.1161152326        23.803765470938
  H        24.4473938068        3.0369939991       12.0758930944
  H        25.5876400219        4.8737522091       13.3222675713
  H        23.1817950723        7.7673766376       11.2402525747
  H        22.0538219525        5.9187014972        9.9930700670
  H        23.8092072169        5.7862429888       14.8052923520
  H        44.9535020707       34.3900394736        9.6949223572
  H        44.9014712092       34.2067071301        22.480419250538
  H        40.6658076031       33.2089741673       10.8529888524
  H        23.1507024875        1.9577268166        8.0046457221
  H        25.8027093108       19.6766984885        19.919850708138
  H        23.6341623467       19.7205539639        18.688812589638
  H        22.3588571254       16.2120242625        20.824216385038
  H        24.5356076917       16.1792742623        22.049984736538
  H        23.7233139450       17.6889195701        17.238329233538
  H        35.1513603851       15.4373474345        19.993142286638
  H        37.2729385584       15.3897015481        18.676387862638
  H        38.6902688616       18.8124548512        20.862445770638
  H        36.5659117859       18.8381431138        22.183385496238
  H        37.2224309496       17.3552190940        17.231878239638
  H        20.3559826521       17.9814167251        20.659430843938
  H        35.1563400738       15.4295557633       12.0822936395
  H        37.2965943811       15.3514427533       13.3660178038
  H        38.7247160850       18.7657809650       11.1740495663
  H        36.5829608067       18.8212480715        9.8844180896
  H        37.2321382286       17.3377003077       14.7902827738
  H        35.1475316551       26.6868308152       11.3914876426
  H        28.5067100585       21.0911559571        23.879343267738
  H        25.7521523252       19.6406170629       12.1501202746
  H        23.5676795174       19.6974047977       13.3665003395
  H        22.3048136261       16.1766988223       11.2442040302
  H        24.4899328116       16.1413198146       10.0251715882
  H        23.7025303404       17.6725125314       14.7981512929
  H        29.0064956125       21.7248857312        9.7424087619
  H        29.1723428365       21.7379131626        22.544891807238
  H        32.0674031791       18.5622545956       10.9900328088
  H        27.4039832020       19.0813461130        8.0852134986
  H        14.8498384133       19.6506509823       12.1373215514
  H        17.0124557250       19.6985920917       13.3800368155
  H        18.3028847184       16.1880548573       11.2565299595
  H        16.1362930137       16.1559931736       10.0132139616
  H        16.9213820433       17.7032100935       14.8472928271
  H        46.0907238424       15.4320432816       12.0577954958
  H        43.9638451563       15.3619573534       13.3602921514
  H        42.5394575479       18.7966240817       11.1974004425
  H        44.6669593515       18.8416497881        9.8842675353
  H        44.0167147462       17.3080411555       14.8201778272
  H        20.2921566748       17.9235592545       11.4217909699
  H        46.0421282148       15.3864946617        20.022265390738
  H        43.9130549399       15.3230003846        18.724676740838
  H        42.5231039655       18.7949776601        20.849174977438
  H        44.6583165174       18.8441182511        22.148576017038
  H        44.0063653739       17.2988858740        17.259290333938
  H        46.1990491245       26.6825428923        20.613104414838
  H        52.7411285244       21.0626326986        8.1946671850
  H        14.8776978354       19.6781915922        19.891040927538
  H        17.0782038647       19.7548737323        18.710451278238
  H        18.3357927553       16.2335610283        20.835198051038
  H        16.1372907592       16.1808062746        22.025385458538
  H        16.9414217658       17.7201411051        17.284525064738
  H        52.3223044189       21.6732680043        22.284176626838
  H        52.0132459411       21.7020864353        9.4956710207
  H        49.0674351207       18.6077952472        21.193846598038
  H        13.2474059528       19.0164142388        23.967157461938
  H        29.9502233038       12.4858975847       12.2448456767
  H        28.8985199127       10.5400585664       13.4072765249
  H        25.2623860516       11.1938835143       11.2061529302
  H        26.3343322623       13.1258413734       10.0344618372
  H        27.1795742272       11.6701537486       14.7912662322
  H        31.0006782199       22.7773428872       12.0128996874
  H        32.0124358428       24.6552711392       13.3109161715
  H        35.6995725104       24.1392747928       11.1575491745
  H        34.6677216648       22.2667744120        9.8563566257
  H        33.6987914143       23.5726483991       14.7479061844
  H        25.7305451879        8.5926911419       11.3989940759
  H        30.9627688173       22.6688826041        19.890176302838
  H        31.9780591063       24.5490377003        18.597236021738
  H        35.6084560010       24.1330504867        20.866875712938
  H        34.5699898562       22.2666308345        22.168644346138
  H        33.6773626827       23.5530090687        17.189619686638
  H        40.5976869869       17.0866625928        20.641206710238
  H        32.5062595823       14.1481902866        8.2519383463
  H        29.8914132318       12.5292117088        19.895256838438
  H        28.8679387332       10.6156128148        18.661635726838
  H        25.1974781086       11.1920997125        20.827456996538
  H        26.2427081323       13.0926538232        22.071547825438
  H        27.1667173352       11.6848349480        17.230206624538
  H        33.2940023417       14.2077702957        22.431389974638
  H        33.4035924150       14.4125445591        9.5999059039
  H        32.1272203366       18.5184088723        21.166092276238
  H        30.1917484991       14.1515575049        8.0794061731
  H        16.1184852856        2.9633529224       12.1297671009
  H        14.9533216189        4.8204028422       13.3225472511
  H        17.3659522613        7.6860220533       11.2098675456
  H        18.5146773493        5.8184865874       10.0100282887
  H        16.7536126561        5.7396173773       14.7715341165
  H        44.8281437241       32.1402704435       11.9770196834
  H        45.9374741213       30.3413918779       13.3064222927
  H        43.6825319581       27.3781645839       11.1524221111
  H        42.5997830027       29.1900050214        9.8098466360
  H        44.2304535306       29.4367306230       14.7688278427
  H        14.8511177973        8.5462755199       11.3633413439
  H        44.8997906818       32.2340388940        19.921457041538
  H        46.0246504311       30.4129756286        18.641946702138
  H        43.7634820034       27.4840638995        20.835164648238
  H        42.6457316828       29.3177537757        22.114228033838
  H        44.2685009440       29.4704746004        17.207896607738
  H        35.0737058440       26.6166253309        20.620362307838
  H        36.6050450918       35.1340896983        8.1806187882
  H        16.1437734097        3.0129891826        19.893838907138
  H        14.9742143197        4.8563460805        18.678079609738
  H        17.3958968687        7.7472995617        20.745216380038
  H        18.5429473464        5.8933679527        21.972869411838
  H        16.7647333225        5.7555548094        17.209075465638
  H        36.2785843482       34.4824019882        22.262991737238
  H        36.3808437847       34.2092434955        9.4996581775
  H        40.5800293337       33.2024293198        21.143358327638
  H        17.4708438836        1.9473802587        23.963876331738
  H        29.2019616905       19.4396667811       12.5009502621
  H        28.9637181196       18.9692174954        19.693205807338
  H        30.8320153981       15.6170227562        19.720528451738
  H        31.2494005527       15.6240715530       12.5351711542
  H        28.0579591134       17.8864529913       14.4221743315
  H        29.2145310790       15.6484078130       14.5126724805
  H        31.2531424687       19.6008225762        17.428342061838
  H        32.5768119037       17.1770393169        17.445752090538
  H        18.8533620460        0.8691709102       12.3352307650
  H        40.5278914495       35.2289681692        19.941834641638
  H        42.3238439977       34.4185592452        19.580373338038
  H        22.0877812828        0.6919362124       12.3516429546
  H        11.5970370631       18.7127754013       12.3823225998
  H        52.2649794621       18.4310824271        19.667354334138
  H        49.2551488258       16.4768053329        19.574333661238
  H        10.1503633581       15.7982225195       12.2927899198
  H        50.8500439759       17.6924843474        19.944030543638
  H        10.0461310688       17.3945871985       12.0519854684
  H        20.2144399070        0.0022455917       12.0420508642
  H        39.1835881771       36.1244522436        19.676256489738
 Ni        30.8170532686       17.7957241309        18.904428468838
 Ni        30.8145642788       16.5731804619       15.989382749538
 Ni        29.7236229042       18.5657733449       15.988991396538
 Ni        30.0522535342       17.4473401889       13.1587983698
  O        10.6499410105       14.3651462254        21.475614159838
  O        12.6131877077       14.6575334279        22.573693677138
  O        49.1477745168       16.8459449447        23.979561741138
  O        50.3501094233       20.9360101831        21.637974272538
  O        48.3484681907       20.5932643127        22.655781562438
  O        11.0515042405       17.0539199532        22.490507004638
  O        50.3209932075       20.8816610426       10.4068304479
  O        48.3467161724       20.5867151897        9.3271131830
  O        49.5436047206       18.2484038673       10.0682608272
  O        12.3589671924       18.6245968960        7.9997567923
  O        48.6932082348       14.1486349687        22.741083779938
  O         8.2099012730       14.2104097576        9.3225287124
  O        10.7353393162       14.5067324783       10.6643369417
  O        12.5718050942       14.5828556184        9.3285010926
  O        22.8447750340        2.0432583923        21.476950934538
  O        21.6058134416        3.5925659857        22.579107075038
  O        42.0582271609       34.1374016461        23.968710343238
  O        37.9815928318       33.1375018280        21.562336991938
  O        39.2180801418       31.5760109873        22.656342010638
  O        20.3084146545        1.0396645470        22.491916033638
  O        38.0249880004       33.1866073363       10.4148163949
  O        39.2192876678       31.5839951034        9.3262893653
  O        40.6523315784       33.7694096829       10.0601907329
  O        18.2555091318        1.3761857127        7.9967934508
  O        44.6222116501       35.1005474157        22.748545193138
  O        24.2054188117       -0.0000067108        9.3207985667
  O        22.7531471574        2.0575159652       10.5837737059
  O        21.6249568810        3.5965185061        9.3434671975
  O        27.4984685253       18.7534077462        21.482357846938
  O        26.7608876992       16.9382184745        22.641320648138
  O        30.6686418857       19.4096533595        8.0616344998
  O        33.5848395252       16.2759368967        21.658870918138
  O        34.2746999665       18.1662430028        22.727859094238
  O        29.5700937131       17.0602407602        22.582160666638
  O        33.5531192697       16.3383700436       10.4151325139
  O        34.3006959146       18.2377586252        9.4072083282
  O        31.6527197076       18.3147906795       10.1467399907
  O        30.2949776569       15.1166524152        8.0833082269
  O        28.5559705205       21.0366631890        22.825246112638
  O        28.5141101092       20.9575657840        9.4044477030
  O        27.4597275447       18.6798384639       10.6595809603
  O        26.6936714669       16.9301583451        9.4133647883
  O        13.1488389499       18.6929696902       10.5874447951
  O        13.9195382039       16.9162499302        9.4051915289
  O        50.5958904677       19.3501633828        8.0205575766
  O        47.6830433914       16.3269519953       10.4171629301
  O        46.9504991779       18.1755795242        9.3254332238
  O        11.0696653972       17.0155892956        9.4896534787
  O        47.6756073964       16.3359198077        21.642589247538
  O        46.9259844806       18.2358467903        22.653480779738
  O        49.5684821267       18.3177173223        21.972117940638
  O        10.3187173603       15.1002289209        7.9971197837
  O        52.6707568681       21.0278865527        9.2418256569
  O        12.1468000157       20.8911902075        22.663037777038
  O        13.1077839005       18.6137748715        21.315514753538
  O        13.9571760462       16.9870633281        22.655178624438
  O        29.9644978646       14.5029712600       10.7429665237
  O        28.0789413576       14.6560159256        9.4899477044
  O        32.0747742006       16.8613050353        8.0812508867
  O        30.9652632300       20.9534264170       10.4082065074
  O        32.9469184199       20.6008929499        9.3382968794
  O        29.5619284112       17.0771760822        9.5719958782
  O        30.9068612623       20.8836470935        21.583611663038
  O        32.8831456475       20.5832634728        22.660014663438
  O        31.6855833596       18.2504096265        21.989871749038
  O        28.2876038941       18.6790829416        8.0731615101
  O        32.4884250262       14.2142177264        9.3294541803
  O        32.4005885355       14.2133947237        22.813450583138
  O        29.8779859940       14.5044269160        21.403361885038
  O        28.0405774461       14.5860131139        22.735837160438
  O        17.8892336069        1.9666992946       10.6627856709
  O        18.9562935922        3.5271670455        9.4079540605
  O        39.1686840347       34.1388684697        7.9971419207
  O        43.2802323111       33.0589519853       10.3316982819
  O        42.0345441698       31.5064502909        9.2416012713
  O        20.3177451179        1.0368198185        9.4800815198
  O        43.2760923975       33.1825840169        21.564705020438
  O        42.0052906343       31.5841065199        22.572766349438
  O        40.5789838368       33.7749590189        21.925591765938
  O        22.3673860454        1.3847754768        7.9979805454
  O        36.6727192792       35.0998478892        9.2332344690
  O        16.4455548240        0.0642611599        22.658040658538
  O        17.9364830372        2.0434051704        21.316182124938
  O        18.9191131719        3.5931439710        22.655754611138
  O        29.8161721968       18.8229919864        20.141944664738
  O        29.8624370324       18.9262674617       11.9971066526
  O        31.2148472885       16.4078876630        20.144008685638
  O        31.2672449330       16.4801798614       12.0658546383
  O        31.6958992942       16.7767743344        17.570318806338
  O        30.1262398805       15.9761059343       14.4018576444
  O        30.4149287731       19.1247765007        17.579283445838
  O        28.8897923417       18.3914360729       14.3557134263
  O        39.4567149312       35.2438200984        19.991793371838
  O        19.1412112374        0.0046681269       11.9905508811
  O        41.9694404956       35.1724688500        20.076931306238
  O        21.6912728537       -0.0693581309       11.8958802031
  O        51.3650963358       18.6143095181        19.995238769538
  O        10.7511641037       18.7471261654       11.9049109353
  O        50.0796051492       16.4128085367        20.081595700438
  O         9.5245247140       16.4830776264       11.9912264158
 Zr         9.2967514042       16.0527974306        22.172200610838
 Zr        49.8363368404       16.0068076220        9.7465270139
 Zr        22.0731710494        0.0298545197        22.178833395838
 Zr        42.4608708915       35.1534041448        9.8010090739
 Zr        29.6138850171       19.0788286962        22.274486188638
 Zr        29.5826407993       19.1824521031        9.8466229935
 Zr        11.0379034261       19.0520298203        9.8277529251
 Zr        11.0437035373       19.1548523440        22.240964815438
 Zr        31.3292571379       16.1075054508        9.8771484637
 Zr        31.3800450553       16.0152937267        22.278609377538
 Zr        18.6011202714       -0.0012708390        9.7632653831
 Zr        18.5064364219       -0.0077852167        22.203514408838
 Zr        12.3020521508       16.3235873970        23.980101566638
 Zr        48.6159473704       18.8329496408        8.0103850085
 Zr        20.3154026512        2.4735624628        23.980454603038
 Zr        40.6434356724       32.6870071113        23.967929037138
 Zr        28.3394647725       16.3396110009        8.0797133359
 Zr        32.6308747670       18.8388430444        8.0536908372
