     576
 i =       97, E =     -4780.0526895645
  C        11.8587954275       14.0535392590        21.731346102138
  C        12.4563265019       12.8906355272        21.013020492838
  C        11.7045838932       12.1715851210        20.071498111138
  C        12.2809848405       11.1093984900        19.379145647538
  C        13.6216251172       10.7397800582        19.606754190838
  C        14.3548759649       11.4435230831        20.580024206738
  C        13.7819661213       12.5084911173        21.271526246238
  C        14.2611386385        9.6490965685        18.833376386438
  C        14.2565052090        9.6570381865        17.411681627438
  C        13.7433537971       10.7591840068        16.657799543438
  C        49.1268850846       21.2332019614        21.869450490138
  C        48.5501259272       22.4011883693        21.142387768938
  C        49.3001377332       23.0684782681        20.161362431238
  C        48.7332106893       24.1076363438        19.428174972038
  C        47.4027067125       24.5093414158        19.656884103038
  C        46.6717680619       23.8604953156        20.670422296138
  C        47.2342206456       22.8155755719        21.399752772338
  C        46.7724238555       25.5870145223        18.859607750538
  C        46.7613510693       25.5573758308        17.437845014538
  C        47.2612507964       24.4422593193        16.694359779638
  C        14.8604243774        8.5706882922        16.698426305438
  C        14.8918644220        8.5971327472        19.510036756838
  C        49.1132366666       21.2034265406       10.1453459108
  C        48.5278470712       22.3647931285       10.8725530473
  C        49.2670205836       23.0253874634       11.8655808734
  C        48.6906987599       24.0599535924       12.5970418687
  C        47.3603471170       24.4568504637       12.3586866921
  C        46.6400023463       23.8120838675       11.3350257512
  C        47.2135523720       22.7761729829       10.6032444046
  C        46.7218785456       25.5318136914       13.1497018951
  C        46.7335506069       25.5281581643       14.5714083307
  C        47.2489491617       24.4289351802       15.3278062774
  C        40.6330555351       17.1119991923       15.3244795446
  C        40.6546713773       17.1570630206       12.5155767280
  C        11.8830560928       14.0865939720       10.2855219801
  C        12.4724680404       12.9108853659       10.9898328375
  C        11.7148924945       12.1774733985       11.9157235302
  C        12.2815354248       11.0950355984       12.5841202559
  C        13.6204623181       10.7215847068       12.3524924812
  C        14.3585373909       11.4374048562       11.3919705646
  C        13.7930508571       12.5185551894       10.7192987228
  C        14.2540444772        9.6247894279       13.1228566011
  C        14.2527534926        9.6447372173       14.5446883024
  C        13.7428548596       10.7536759380       15.2917560089
  C        22.5106985412        3.2457245936        21.741861270638
  C        23.2200886914        4.3548205906        21.041346081138
  C        24.2159509047        4.0824907231        20.091721330338
  C        24.8350492022        5.1271070045        19.409423397838
  C        24.4739904705        6.4667918357        19.656015511938
  C        23.5070025383        6.7306370075        20.643185547338
  C        22.8835254108        5.6880471825        21.323850634838
  C        25.0677905283        7.5791429513        18.878367969938
  C        25.0338942908        7.5725880750        17.456670436638
  C        24.3403583174        6.5664648598        16.711408653938
  C        38.3027687988       31.9301274492        21.839189061138
  C        37.5732940975       30.8406737464        21.130088803338
  C        36.6121228987       31.1442440462        20.153891524338
  C        35.9952313666       30.1236698905        19.435934355238
  C        36.3252612357       28.7749174691        19.672698420038
  C        37.2566976416       28.4787173248        20.685507082338
  C        37.8775098242       29.4979895469        21.402456632738
  C        35.7233765625       27.6833577994        18.875456881938
  C        35.7521034949       27.7002385466        17.454206941738
  C        36.4565018445       28.7038253505        16.717181110438
  C        25.6428065222        8.6490605117        16.734585996638
  C        25.6606356980        8.6586866561        19.546346165438
  C        38.3288387991       31.9625942948       10.1561334360
  C        37.6068857701       30.8900623124       10.8982157312
  C        36.6774576573       31.1998291683       11.9028665971
  C        36.0667871706       30.1820286849       12.6327817801
  C        36.3714342544       28.8292987774       12.3813822937
  C        37.2785562569       28.5294976110       11.3466541750
  C        37.8913338346       29.5437741567       10.6180031383
  C        35.7628621605       27.7308108548       13.1656284942
  C        35.7721222774       27.7246705700       14.5875576676
  C        36.4656398701       28.7158109306       15.3506877762
  C        46.1355334047       26.6207953526       15.2815402327
  C        46.0879739355       26.5802023546       12.4736466663
  C        22.4592216353        3.2555233143       10.2568629659
  C        23.1492472324        4.3664029135       10.9791442541
  C        24.1504646905        4.0851489357       11.9220489761
  C        24.7730063543        5.1190257144       12.6172755504
  C        24.4139141668        6.4627112593       12.3911462782
  C        23.4362999310        6.7372584061       11.4163444283
  C        22.8090105303        5.7038037039       10.7219907606
  C        25.0356974808        7.5655854365       13.1649282256
  C        25.0180342396        7.5649471458       14.5873968376
  C        24.3303599703        6.5644648836       15.3445904854
  C        26.6227412696       17.8614664391        21.776448219138
  C        25.3167417288       17.8972170849        21.046631502938
  C        25.0607504342       18.8851998249        20.082742026738
  C        23.8477569953       18.9035134088        19.396725981738
  C        22.8535687486       17.9367660832        19.651790501238
  C        23.1071162960       16.9697955382        20.642898011238
  C        24.3221923675       16.9462917452        21.326746721638
  C        21.5792431577       17.9234450876        18.889149332138
  C        21.5782437607       17.9001144147        17.466617403738
  C        22.7825735419       17.7678639513        16.705593185338
  C        34.4348515104       17.1939991275        21.906880497338
  C        35.7276561763       17.1393833610        21.163614541838
  C        35.9301937007       16.1680620818        20.170981516238
  C        37.1115071024       16.1508097909        19.434980055938
  C        38.1212000462       17.1033490950        19.672589042838
  C        37.9212831172       18.0550614421        20.690512619438
  C        36.7373562675       18.0778433717        21.423659013938
  C        39.3757947369       17.1091289704        18.887326999038
  C        39.3726677659       17.1227693484        17.465860933238
  C        38.1653713329       17.2395053920        16.707164390338
  C        20.3313797919       17.9244418027        16.758677476638
  C        20.3546427078       17.9309809704        19.572007833738
  C        34.4782296768       17.2460664350       10.1791384572
  C        35.7797580601       17.1727105591       10.9047296387
  C        35.9929780536       16.1824336086       11.8752429747
  C        37.1783225016       16.1593509390       12.6043317658
  C        38.1774970861       17.1266146466       12.3822742972
  C        37.9697317535       18.0934881661       11.3811979788
  C        36.7825118142       18.1209188997       10.6542108257
  C        39.4232765654       17.1389732845       13.1788284709
  C        39.3972151717       17.1377913548       14.5995846216
  C        38.1780136276       17.2439525845       15.3406918962
  C        35.1416479352       26.6453415335       15.2913306793
  C        35.1735140695       26.6599205114       12.4823693246
  C        26.5694288781       17.8270390051       10.3256869375
  C        25.2547244217       17.8705226566       11.0320631852
  C        24.9921279165       18.8710289715       11.9800681122
  C        23.7747327227       18.8943813905       12.6546258482
  C        22.7904281638       17.9174071995       12.4041561157
  C        23.0474173291       16.9418520949       11.4239663347
  C        24.2658729784       16.9160189274       10.7482367241
  C        21.5269674845       17.8982806073       13.1770172917
  C        21.5514467728       17.8861744806       14.5984287336
  C        22.7695588304       17.7615046997       15.3394043585
  C        14.0465666700       17.8288707848       10.2891376010
  C        15.3504761490       17.8858653479       11.0150057557
  C        15.6071559844       18.8896706791       11.9620416199
  C        16.8157847892       18.9104379903       12.6555617274
  C        17.8019821804       17.9301568728       12.4243852359
  C        17.5499776390       16.9505491856       11.4452465639
  C        16.3409317752       16.9252320037       10.7531814715
  C        19.0709663230       17.9122822535       13.1934722451
  C        19.0701597067       17.9098434745       14.6159865013
  C        17.8632226346       17.8155678735       15.3778799140
  C        46.8064325683       17.2193648442       10.1596120358
  C        45.5186057705       17.1594582130       10.9083255302
  C        45.3139096901       16.1810310051       11.8933417380
  C        44.1341816935       16.1641900198       12.6323431373
  C        43.1301301739       17.1261137416       12.4079182840
  C        43.3324974057       18.0848999200       11.3969376556
  C        44.5127733021       18.1054079581       10.6587217212
  C        41.8773679686       17.1361596822       13.1961813348
  C        41.8809781541       17.1279964508       14.6179108195
  C        43.0888924465       17.2185304652       15.3785691390
  C        20.3172572624       17.9161327483       15.3238354689
  C        20.2948243995       17.8905613660       12.5107364421
  C        46.7851691048       17.2297571807        21.880771756438
  C        45.4806433161       17.1199511057        21.168764209438
  C        45.2628999053       16.1194148191        20.209559750038
  C        44.0743313894       16.0897586570        19.484522321038
  C        43.0745710697       17.0573872858        19.702460684438
  C        43.2818900589       18.0265684346        20.701561865038
  C        44.4717808974       18.0628122056        21.421353393738
  C        41.8295281377       17.0794327014        18.904189956638
  C        41.8565904168       17.0976146208        17.483528642038
  C        43.0772576223       17.2018007604        16.744879980738
  C        46.1533150721       26.6372417127        16.716090681638
  C        46.1625240219       26.6561681218        19.525727587038
  C        14.0460841874       17.8319211435        21.698748971038
  C        15.3676824271       17.9063766511        21.009345934238
  C        15.6429382814       18.9225527889        20.082065568538
  C        16.8725510807       18.9593387774        19.428206171838
  C        17.8546911573       17.9789225892        19.675250513338
  C        17.5864140483       16.9920531923        20.641278334338
  C        16.3590095904       16.9548634583        21.298897659838
  C        19.1217575770       17.9518343196        18.905731826338
  C        19.0966719744       17.9285603810        17.484173822638
  C        17.8761743017       17.8238778450        16.743884505538
  C        28.8086437743       14.0940372160       10.3933204567
  C        28.1872999259       12.9253037888       11.0818940685
  C        28.8900036986       12.2026477082       12.0570302228
  C        28.2803537512       11.1318979100       12.7059253509
  C        26.9541986095       10.7610979537       12.4039313637
  C        26.2737844525       11.4651421890       11.3946552933
  C        26.8809337185       12.5360972892       10.7444950245
  C        26.2747990270        9.6856819580       13.1610582533
  C        26.2419294476        9.7229392027       14.5809760760
  C        26.7172546367       10.8505509150       15.3226263590
  C        32.1800843960       21.2437733098       10.1414660075
  C        32.7759561398       22.4099104864       10.8598064693
  C        32.0265970978       23.0869443592       11.8342076933
  C        32.5961826288       24.1257496642       12.5640275448
  C        33.9309357873       24.5149903724       12.3403661837
  C        34.6628609658       23.8565779014       11.3342886748
  C        34.0954405309       22.8124004985       10.6061034304
  C        34.5584821245       25.5902451012       13.1416976207
  C        34.5493028002       25.5619329298       14.5633557562
  C        34.0388673558       24.4474837920       15.3014372544
  C        25.6404513719        8.6413497463       15.3005930931
  C        25.6526463593        8.6262581472       12.4879539510
  C        32.1023081077       21.2280801609        21.872395367938
  C        32.6948168917       22.3785780977        21.127800813538
  C        31.9580350683       23.0458086547        20.137163906438
  C        32.5393477108       24.0744217637        19.399567932438
  C        33.8712446329       24.4671243934        19.636010830138
  C        34.5910723893       23.8142854507        20.654832923438
  C        34.0146209920       22.7792173408        21.386575912738
  C        34.5109368522       25.5486800255        18.851954364538
  C        34.5240912161       25.5411506241        17.430114728138
  C        34.0258057519       24.4378692678        16.668076796738
  C        40.6201424315       17.1002245524        16.758625854638
  C        40.5983355126       17.1039229688        19.568055129138
  C        28.7382839544       14.0754448153        21.800733577938
  C        28.1105354584       12.9492157281        21.045026985038
  C        28.8267850272       12.2624208556        20.052252705938
  C        28.2312217867       11.2135535875        19.354628727038
  C        26.9046933043       10.8211686181        19.628381102638
  C        26.2045647641       11.4995943191        20.643111501638
  C        26.7967564797       12.5516644644        21.339027547438
  C        26.2564017982        9.7284050244        18.865115700438
  C        26.2338972551        9.7447320518        17.444232083938
  C        26.7101540713       10.8610626028        16.687711742338
  C        18.1353670247        3.1810352886       10.3172009564
  C        17.4061210006        4.2782732644       11.0158153886
  C        16.3904277929        3.9999686878       11.9433823971
  C        15.7427412212        5.0399972326       12.6068357640
  C        16.0946861047        6.3837091164       12.3671143311
  C        17.0840296719        6.6531737973       11.4032926517
  C        17.7330639296        5.6157887004       10.7382668110
  C        15.4704093062        7.4914299148       13.1301429898
  C        15.4856659292        7.4907034123       14.5518491921
  C        16.1871877482        6.4970634945       15.3050153309
  C        42.9459309888       31.8595226508       10.0728838602
  C        43.6463093030       30.7718824180       10.8168539151
  C        44.5918009196       31.0932123283       11.8029606979
  C        45.1974982218       30.0876675007       12.5506354669
  C        44.8711365647       28.7345950285       12.3357199959
  C        43.9453723837       28.4202528565       11.3224503073
  C        43.3365591015       29.4253895034       10.5744058957
  C        45.4887014059       27.6552923616       13.1389151749
  C        45.4928354215       27.6809209424       14.5606081428
  C        44.8057193096       28.6889514667       15.3072290451
  C        14.8567060249        8.5631916017       15.2642134045
  C        14.8752448604        8.5632670201       12.4515530391
  C        42.9464868995       31.9616307762        21.798780800738
  C        43.6917522514       30.8855367503        21.085302122738
  C        44.6562828491       31.1914486721        20.112938137938
  C        45.2778170061       30.1718593114        19.395225745738
  C        44.9541188630       28.8215304440        19.632920236038
  C        44.0207272697       28.5238662240        20.643785996038
  C        43.3924538947       29.5406288458        21.355952868638
  C        45.5631470902       27.7241246067        18.847677797938
  C        45.5333720834       27.7174140771        17.426381436138
  C        44.8269950703       28.7075973325        16.673414603238
  C        35.1303164985       26.6337237560        16.726040421738
  C        35.1218622556       26.6062922901        19.535915972638
  C        18.1484321613        3.2469991693        21.696319027938
  C        17.4298854039        4.3438117920        20.987049917238
  C        16.4147334246        4.0525748785        20.063402244438
  C        15.7664590906        5.0832409050        19.388043307838
  C        16.1210983708        6.4284690300        19.610875149138
  C        17.1124174161        6.7118162953        20.568206770838
  C        17.7600413496        5.6828729620        21.247952267438
  C        15.4906653814        7.5241891755        18.838441628438
  C        15.4965972341        7.5075657068        17.417314346138
  C        16.1933697783        6.5058691079        16.670617825438
  H        10.6723937680       12.4655827989        19.894623908638
  H        11.6946784313       10.5507870326        18.652720040638
  H        15.3919973581       11.1691339063        20.761552352438
  H        14.3515043323       13.0719046706        22.006759345438
  H        13.3763550516       11.6313020754        17.191130945138
  H        50.3228284950       22.7483968203        19.976581676338
  H        49.3196999734       24.6228913216        18.670591757638
  H        45.6423076576       24.1613328017        20.853664180238
  H        46.6632403268       22.2903519799        22.161882170138
  H        47.6297911012       23.5758867380        17.236053768538
  H        14.8721823040        8.5883955556        20.598344071838
  H        50.2870262671       22.7024433557       12.0605611999
  H        49.2690762261       24.5753352955       13.3606074413
  H        45.6106690366       24.1094821950       11.1458225648
  H        46.6528058742       22.2541358539        9.8315405296
  H        47.6077275374       23.5518105672       14.7969165226
  H        40.6617994094       17.1320195093       11.4275911111
  H        48.6871978744       14.0948901416        23.789839876238
  H        10.6813253957       12.4663253855       12.0929184358
  H        11.6897166663       10.5244353425       13.2966293158
  H        15.3941004925       11.1598255179       11.2063197111
  H        14.3654805155       13.0881768887        9.9910374049
  H        13.3760736055       11.6223015521       14.7531067199
  H        47.9302239842       14.2183287768        9.7107711574
  H        47.7801359902       14.3738901755        22.485187045838
  H        49.0842266314       18.5526342546       10.8674778460
  H        10.4161810364       14.1342926334        7.9986797930
  H        24.4826605410        3.0458440988        19.898028811538
  H        25.6071056606        4.9148470644        18.672989434438
  H        23.2201130595        7.7614474671        20.840562803338
  H        22.1144594550        5.8830892294        22.067215113038
  H        23.7859590000        5.8051398760        17.252377725238
  H        36.3735936241       32.1873325058        19.960043743238
  H        35.2493710330       30.3618700854        18.680811836038
  H        37.5185797312       27.4397943156        20.874931521138
  H        38.6224310049       29.2779262695        22.163444197038
  H        37.0216250449       29.4534913560        17.263298310138
  H        25.7056400182        8.6393500805        20.633799467038
  H        36.4546203662       32.2442578918       12.1090434080
  H        35.3404796443       30.4274580974       13.4044441865
  H        37.5254056918       27.4890389155       11.1460609440
  H        38.6142208007       29.3175659344        9.8380044954
  H        37.0389318641       29.4741967947       14.8253234748
  H        46.1094458019       26.5876243634       11.3856128978
  H        44.6682261587       35.1162075683        23.803726831138
  H        24.4311728973        3.0481273589       12.0917656194
  H        25.5530406605        4.8949820518       13.3417822976
  H        23.1483701470        7.7705249482       11.2335494304
  H        22.0379096781        5.9118010584        9.9838639883
  H        23.7674758906        5.8021314633       14.8137573330
  H        44.9538029357       34.3903923406        9.6951912510
  H        44.9016852849       34.2068585760        22.480319627338
  H        40.6659822336       33.2089995738       10.8530335493
  H        23.1501861245        1.9580993282        8.0048140177
  H        25.8252854371       19.6341085267        19.888659851238
  H        23.6542041568       19.6768693970        18.656375632538
  H        22.3521131631       16.2137268788        20.848871863738
  H        24.5273601187       16.1873547988        22.078238827638
  H        23.7226982836       17.6389653592        17.234026595338
  H        35.1447736246       15.4390182771        19.985995740738
  H        37.2683477098       15.3900969674        18.673355192838
  H        38.6935752485       18.7983835911        20.877310884238
  H        36.5655480682       18.8264855170        22.193595714038
  H        37.2239913878       17.3540909426        17.237337841838
  H        20.3621223116       17.9722286673        20.659835243538
  H        35.2108805277       15.4479158639       12.0526305081
  H        37.3446431001       15.3875717831       13.3527478691
  H        38.7358803383       18.8461235009       11.2066812056
  H        36.5995141819       18.8831701376        9.9004502381
  H        37.2461928815       17.3574328334       14.7940897862
  H        35.1465882691       26.6855504638       11.3946516552
  H        28.5027558111       21.0874488005        23.962705415438
  H        25.7544514454       19.6233583576       12.1694171713
  H        23.5706837623       19.6741578950       13.3852112038
  H        22.2957740724       16.1806215528       11.2251949413
  H        24.4807314790       16.1508201111       10.0061334676
  H        23.6996374773       17.6276254095       14.7950990407
  H        28.9995735256       21.7245039406        9.7634174626
  H        29.1703803041       21.7381915673        22.615689633038
  H        32.1122212871       18.5662846752       10.9741620036
  H        27.3958136804       19.0731460444        8.0833181543
  H        14.8490510049       19.6492824832       12.1392385030
  H        17.0110982307       19.6952626378       13.3831824856
  H        18.3009509224       16.1858093023       11.2577286508
  H        16.1350689323       16.1556586410       10.0130152711
  H        16.9199599205       17.7035522556       14.8512138442
  H        46.0962293387       15.4472453793       12.0724629428
  H        43.9750169162       15.3973109559       13.3872094383
  H        42.5650577013       18.8356249088       11.2201775203
  H        44.6859342590       18.8594080520        9.8944596923
  H        44.0313415624       17.3341524837       14.8509401341
  H        20.2884744720       17.9215446315       11.4226421717
  H        46.0411435506       15.3804639163        20.033003347838
  H        43.9080567548       15.3142533904        18.739991471438
  H        42.5141706043       18.7774692965        20.876194872538
  H        44.6542233709       18.8304354620        22.169363973438
  H        44.0109067183       17.3033844425        17.290466177938
  H        46.1994365530       26.6827486551        20.613169479738
  H        52.7412565781       21.0626572413        8.1946985237
  H        14.8833894298       19.6772694325        19.890278687838
  H        17.0848793963       19.7503416600        18.712138554138
  H        18.3359457172       16.2287769944        20.840090653138
  H        16.1368298559       16.1798569618        22.028405572138
  H        16.9425717268       17.7183479061        17.288224004238
  H        52.3226081275       21.6733393365        22.284004857938
  H        52.0133650239       21.7021876727        9.4956360225
  H        49.0674967051       18.6075677095        21.193866637738
  H        13.2477579131       19.0161434283        23.967203331038
  H        29.9100393441       12.4964142497       12.2941810341
  H        28.8261760276       10.5701748485       13.4608239525
  H        25.2488597075       11.1894598577       11.1550485627
  H        26.3531133778       13.1022154898        9.9810833666
  H        27.0605773391       11.7268495037       14.7809548895
  H        31.0016333838       22.7718052695       12.0143214953
  H        32.0101514425       24.6503952110       13.3154775567
  H        35.6958410097       24.1484648526       11.1560931379
  H        34.6657767217       22.2784220882        9.8494521869
  H        33.6814388585       23.5796116919       14.7546705406
  H        25.6952378199        8.5989311589       11.4005548728
  H        30.9311429359       22.7395470141        19.952231999938
  H        31.9614440441       24.5924765863        18.637295651038
  H        35.6220524895       24.1068581713        20.842908463838
  H        34.5755400112       22.2524929410        22.155093762038
  H        33.6588232252       23.5622425375        17.196021286338
  H        40.5900483237       17.0656273468        20.655676835038
  H        32.5150087075       14.1459594298        8.2476040856
  H        29.8563775944       12.5528277721        19.854222782438
  H        28.7954754061       10.6743863407        18.596667637538
  H        25.1777841921       11.2117169231        20.859665503538
  H        26.2538642069       13.0894578309        22.112724855938
  H        27.0461422918       11.7464839188        17.218856946338
  H        33.3017824635       14.2164255305        22.441202710038
  H        33.4100072320       14.3986915596        9.6036793136
  H        32.1162556742       18.5380749890        21.171246738638
  H        30.2286109175       14.1899946877        8.0704705904
  H        16.1183243173        2.9634800879       12.1298117283
  H        14.9532813647        4.8206707571       13.3225008770
  H        17.3664871443        7.6860358926       11.2101495391
  H        18.5150356922        5.8184110339       10.0103476398
  H        16.7537865101        5.7397547838       14.7715202430
  H        44.8280483095       32.1402961585       11.9771822286
  H        45.9373429361       30.3414188507       13.3066015910
  H        43.6827531187       27.3781769505       11.1522652779
  H        42.5999942274       29.1900441170        9.8096957298
  H        44.2303538748       29.4367070897       14.7689198867
  H        14.8515233585        8.5465624593       11.3633321200
  H        44.8997776654       32.2341309841        19.921433896138
  H        46.0246794446       30.4130891440        18.641945501638
  H        43.7638662296       27.4841295288        20.835441911638
  H        42.6460394716       29.3178186221        22.114475399038
  H        44.2684886870       29.4704905005        17.207992227538
  H        35.0816803842       26.6171691974        20.623483024638
  H        36.6050276126       35.1340778956        8.1806540344
  H        16.1436515159        3.0130067310        19.893622222838
  H        14.9741655406        4.8564450946        18.677907338738
  H        17.3958922540        7.7472828299        20.745156669838
  H        18.5428474029        5.8933028256        21.972791687038
  H        16.7648031348        5.7556269519        17.209050497938
  H        36.2782877608       34.4826793198        22.262924078538
  H        36.3806933714       34.2092765713        9.4997117331
  H        40.5804301695       33.2025699165        21.143316572038
  H        17.4705654007        1.9473855457        23.963874628138
  H        29.0226625665       19.4107743150       12.4903302611
  H        29.5799144496       19.6871596581        19.611947132838
  H        30.7858847951       15.6028048691        19.693285721538
  H        31.2828761256       15.5567570954       12.4870692814
  H        27.8634107214       17.7909736926       14.5266874861
  H        29.2424327530       15.3386897710       14.5503063405
  H        31.2788387394       19.4155389039        17.374409936838
  H        32.5312091241       17.0808217563        17.575492279438
  H        27.8230165324       14.4663984638        17.663526399238
  H        34.4287317153       18.5767343656       15.4107603870
  H        18.8535129890        0.8690340222       12.3353055422
  H        40.5278312239       35.2292146246        19.941843032238
  H        42.3245531692       34.4194830715        19.580198300838
  H        22.0878119124        0.6920732770       12.3515440983
  H        11.5968804415       18.7128130937       12.3824706616
  H        52.2650528301       18.4312989655        19.667046545838
  H        49.2555156909       16.4768943326        19.574115921938
  H        10.1496337924       15.7982882490       12.2931503163
  H        50.8502715903       17.6924222733        19.944044549638
  H        10.0458546190       17.3945184349       12.0519505354
  H        20.2147925359        0.0022817163       12.0419705335
  H        39.1836056745       36.1245300772        19.676263035438
 Ni        30.6979699130       17.8115006497        18.981481973438
 Ni        30.8172119867       16.5676326735       15.900836829438
 Ni        29.4989616960       18.5166896159        16.150042567638
 Ni        30.0990417548       17.4238785108       13.0086926326
  O        10.6499640086       14.3650759516        21.475634127738
  O        12.6131934259       14.6575052881        22.573693094438
  O        49.1480200275       16.8459093348        23.979497697138
  O        50.3502862768       20.9358903339        21.637844283538
  O        48.3485588909       20.5933303425        22.655683823638
  O        11.0517475025       17.0538748223        22.490510587538
  O        50.3209998111       20.8816720059       10.4068561718
  O        48.3467351542       20.5867707992        9.3271271281
  O        49.5437789527       18.2484200055       10.0681968054
  O        12.3591626039       18.6246467915        7.9996863739
  O        48.6932940350       14.1485247180        22.741108441138
  O         8.2099417330       14.2103319629        9.3225153632
  O        10.7354018611       14.5067649040       10.6643306737
  O        12.5718471911       14.5828254354        9.3284924643
  O        22.8450146058        2.0448500396        21.476392022738
  O        21.6050307930        3.5921927097        22.579797110638
  O        42.0582818236       34.1374038459        23.968654337338
  O        37.9818118507       33.1383695719        21.562474608138
  O        39.2182968536       31.5764263310        22.656615460638
  O        20.3084374502        1.0395041013        22.491690148638
  O        38.0249558657       33.1863795059       10.4149942122
  O        39.2191756165       31.5838566278        9.3264528555
  O        40.6523457443       33.7693762459       10.0602011947
  O        18.2552589738        1.3762300105        7.9967521495
  O        44.6222081367       35.1006058997        22.748517180338
  O        24.2053973412        0.0000287076        9.3207980929
  O        22.7528562244        2.0580981755       10.5837736479
  O        21.6236720025        3.5952435391        9.3410826493
  O        27.4918984154       18.7547283762        21.493999065238
  O        26.7662935005       16.9307272717        22.646624695438
  O        30.6704001110       19.4084787961        8.0701481599
  O        33.5780793627       16.2784816318        21.653509293938
  O        34.2755211653       18.1670954231        22.723962219438
  O        29.5694984273       17.0673364592        22.580434610538
  O        33.6221105914       16.3286327720       10.4081573822
  O        34.3063262146       18.2483125942        9.4054903502
  O        31.6531265843       18.3144510910       10.1561027571
  O        30.3232045617       15.1564859216        8.0847317357
  O        28.5541518736       21.0356410825        22.892528352138
  O        28.5120702742       20.9603262928        9.4111976500
  O        27.4560856745       18.6781022936       10.6604374133
  O        26.6932164292       16.9290821161        9.4140319502
  O        13.1485330619       18.6930188448       10.5874181488
  O        13.9193824630       16.9163296552        9.4051789436
  O        50.5963148789       19.3502528753        8.0203663241
  O        47.6839496278       16.3267883675       10.4171346504
  O        46.9518640508       18.1758336044        9.3246548026
  O        11.0698974049       17.0154976591        9.4896265551
  O        47.6764793403       16.3354574404        21.643191164838
  O        46.9269927258       18.2357344546        22.654279775838
  O        49.5687727455       18.3177158480        21.972061260738
  O        10.3187006573       15.1001297290        7.9970687154
  O        52.6707679965       21.0278944111        9.2418149680
  O        12.1468369172       20.8912105634        22.663043806838
  O        13.1084771845       18.6136238101        21.315395529438
  O        13.9572155557       16.9870218279        22.655231576638
  O        29.9927087503       14.4429851913       10.7312557602
  O        28.0896687230       14.6544935798        9.4937244714
  O        32.1397130441       16.8600681674        8.0798849159
  O        30.9673910162       20.9566280064       10.4055184568
  O        32.9490188791       20.6019422155        9.3383290507
  O        29.5688026116       17.0758960413        9.5789459753
  O        30.8716401572       20.9473448449        21.653353010338
  O        32.8777365106       20.5866096179        22.655995109938
  O        31.6829422561       18.2534935971        21.993302524838
  O        28.2823001413       18.6771312381        8.0812433355
  O        32.4933830396       14.2126624737        9.3277924022
  O        32.4046407932       14.2135400828        22.814714573338
  O        29.9183489613       14.4356633261        21.477733618538
  O        28.0406154529       14.5876024192        22.742275647138
  O        17.8892054950        1.9666450571       10.6628252443
  O        18.9561687612        3.5271256616        9.4079794763
  O        39.1686884443       34.1389115283        7.9971842615
  O        43.2802343122       33.0589756754       10.3316970082
  O        42.0345576365       31.5064471880        9.2416365289
  O        20.3176844215        1.0367156053        9.4801824554
  O        43.2760813290       33.1826421028        21.564692663638
  O        42.0052918791       31.5841112817        22.572759988838
  O        40.5790768066       33.7750454350        21.925583107038
  O        22.3673293336        1.3845269803        7.9977886889
  O        36.6727209705       35.0998205863        9.2332704521
  O        16.4454894767        0.0643118409        22.658097761838
  O        17.9364445088        2.0433553718        21.316146020938
  O        18.9189185954        3.5931242306        22.655660081638
  O        29.7794571669       18.9043560761        20.156448757138
  O        29.7820920857       19.0496507427       11.9950874156
  O        31.0559811112       16.4102722337        20.165846383938
  O        31.3931898971       16.3944897403       11.9930955164
  O        31.6035776860       16.7770674433        17.631321368038
  O        27.7530934974       15.2378084409        17.075153398538
  O        30.1269537713       15.6860971961       14.3334152297
  O        33.6185669621       18.3891043822       15.9113003190
  O        30.3735897708       19.1891953811        17.670000275438
  O        28.6778706772       18.3223761810       14.4899813281
  O        39.4568081597       35.2438828371        19.991711957838
  O        19.1414628573        0.0045902523       11.9905515870
  O        41.9697559920       35.1729932825        20.077080720238
  O        21.6913158344       -0.0692727871       11.8958560639
  O        51.3652073111       18.6143197560        19.995216287038
  O        10.7510675961       18.7471629587       11.9049390750
  O        50.0798525883       16.4127865915        20.081525422238
  O         9.5239699513       16.4831544764       11.9912296089
 Zr         9.2973667900       16.0527185861        22.172264909838
 Zr        49.8368052292       16.0066167229        9.7462935941
 Zr        22.0733647230        0.0300675818        22.178788627038
 Zr        42.4609338620       35.1534159696        9.8008454529
 Zr        29.5991082313       19.0938572738        22.305869245138
 Zr        29.5783249766       19.1834760748        9.8618179505
 Zr        11.0384089413       19.0518632284        9.8277705467
 Zr        11.0443892913       19.1547437211        22.240670851538
 Zr        31.3598238525       16.1002891517        9.8679434787
 Zr        31.3873520436       16.0231738317        22.292227001638
 Zr        18.6011003636       -0.0011961761        9.7634012730
 Zr        18.5063725998       -0.0076553568        22.203540315538
 Zr        12.3026634808       16.3236606942        23.980099618838
 Zr        48.6170555828       18.8331817135        8.0101219097
 Zr        20.3146818495        2.4731857995        23.980039234338
 Zr        40.6435423393       32.6871907140        23.968051915238
 Zr        28.3402369665       16.3424368368        8.0876000280
 Zr        32.6375980752       18.8443931389        8.0550881988
  H        31.0081909315       17.6733873480       14.5909903112
  H        32.9459019581       18.1845105892       15.2317613900
  H        29.3519220232       17.0808063160        16.577054851138
  H        27.6190135839       15.9811857943        17.687339390038
