     573
 i =       72, E =     -4762.8497495575
  C        11.8589235141       14.0535032849        21.731380423838
  C        12.4564717156       12.8906605332        21.013027723338
  C        11.7046550985       12.1714330028        20.071685857638
  C        12.2810601575       11.1092495228        19.379334999238
  C        13.6217735039       10.7397698139        19.606779232238
  C        14.3551122395       11.4437019523        20.579850670338
  C        13.7821970773       12.5086682675        21.271359575538
  C        14.2612597557        9.6490661981        18.833385213338
  C        14.2563685031        9.6568776961        17.411686505938
  C        13.7431012795       10.7589681160        16.657803204738
  C        49.1269317111       21.2331212775        21.869508803838
  C        48.5501930040       22.4011565700        21.142458955638
  C        49.3001621476       23.0683308217        20.161327428138
  C        48.7332555908       24.1075014468        19.428132013138
  C        47.4027991800       24.5093171920        19.656909770138
  C        46.6719398335       23.8606386902        20.670618809038
  C        47.2343706519       22.8157150952        21.399960440538
  C        46.7725145546       25.5869931941        18.859635851438
  C        46.7613681961       25.5573227531        17.437871634438
  C        47.2613038702       24.4422387383        16.694362503138
  C        14.8602280440        8.5705048809        16.698409918338
  C        14.8921633249        8.5971911277        19.510025156438
  C        49.1133114422       21.2034236609       10.1453665801
  C        48.5279587153       22.3648628105       10.8725128323
  C        49.2671207710       23.0253564294       11.8656158296
  C        48.6908363855       24.0599376718       12.5970915020
  C        47.3605385505       24.4569643683       12.3586625061
  C        46.6402387437       23.8123355627       11.3348784059
  C        47.2137443654       22.7764098870       10.6030825591
  C        46.7220585543       25.5319035763       13.1497105602
  C        46.7336196165       25.5281698753       14.5714220006
  C        47.2490350637       24.4289474305       15.3278082653
  C        40.6270813823       17.1065115701       15.3212809987
  C        40.6380854448       17.1261499095       12.5115398514
  C        11.8830163377       14.0865370592       10.2855018488
  C        12.4722978384       12.9107822872       10.9897722770
  C        11.7146711129       12.1774358617       11.9156848138
  C        12.2812276674       11.0949646898       12.5840945040
  C        13.6201208488       10.7213768125       12.3524568653
  C        14.3582285678       11.4371203984       11.3918931981
  C        13.7928403090       12.5183146332       10.7192076752
  C        14.2536581344        9.6245606113       13.1228383327
  C        14.2523471492        9.6444779005       14.5446773685
  C        13.7424790286       10.7534223001       15.2917583456
  C        22.5092016474        3.2445776896        21.739491176138
  C        23.2172050283        4.3493514629        21.032261090238
  C        24.2121215548        4.0685630720        20.084064754938
  C        24.8358262593        5.1072068834        19.397542684038
  C        24.4803673563        6.4492985713        19.638510924338
  C        23.5116361413        6.7215667013        20.621831465538
  C        22.8835853507        5.6847807697        21.307100153838
  C        25.0897964621        7.5552878632        18.864632748538
  C        25.0753652509        7.5472500749        17.442787802738
  C        24.3782338723        6.5490548408        16.690595334338
  C        38.3027255043       31.9301072897        21.839154021438
  C        37.5729615165       30.8404824684        21.129806297538
  C        36.6133680191       31.1441969613        20.152114905438
  C        35.9962757413       30.1237109029        19.434029993038
  C        36.3241218616       28.7747560473        19.672558240738
  C        37.2539836237       28.4784258637        20.686781342938
  C        37.8752708837       29.4976647068        21.403544060338
  C        35.7219623970       27.6830615836        18.875282905638
  C        35.7543377264       27.6978757899        17.454021124138
  C        36.4616968940       28.6995493732        16.717193715738
  C        25.7078045570        8.6151311720        16.727925077938
  C        25.6828078523        8.6299159208        19.539999417238
  C        38.3292159870       31.9624120222       10.1562588895
  C        37.6084994981       30.8888989012       10.8986803642
  C        36.6794714825       31.1972151891       11.9040736257
  C        36.0703014766       30.1783585613       12.6338810950
  C        36.3760918835       28.8260818601       12.3814766242
  C        37.2829029299       28.5276700394       11.3461440361
  C        37.8942029676       29.5430297151       10.6177147101
  C        35.7683577587       27.7267919109       13.1653715554
  C        35.7779800248       27.7203252203       14.5873301286
  C        36.4724571314       28.7106902420       15.3506649949
  C        46.1355610570       26.6207770143       15.2815709589
  C        46.0881879678       26.5803270659       12.4736732145
  C        22.4661773086        3.2568020936       10.2557481163
  C        23.1718088026        4.3646519393       10.9708718120
  C        24.1799246912        4.0763296239       11.9049106349
  C        24.8180314656        5.1048848413       12.5946001271
  C        24.4690672476        6.4524980776       12.3740140949
  C        23.4850845133        6.7341052627       11.4073331702
  C        22.8425303224        5.7057762789       10.7176637437
  C        25.1036832635        7.5482772870       13.1507329075
  C        25.0835519017        7.5429302258       14.5736024311
  C        24.3797748356        6.5484547140       15.3239824856
  C        26.6236989693       17.8632852219        21.769772376038
  C        25.3160290239       17.9103387114        21.047188700138
  C        25.0613025371       18.9008223662        20.085465749638
  C        23.8472697197       18.9235467435        19.401644955138
  C        22.8513988125       17.9583820967        19.655581912838
  C        23.1026750042       16.9906680264        20.646773441338
  C        24.3182824246       16.9629716078        21.329022593238
  C        21.5783085360       17.9442785778        18.890696417438
  C        21.5785117856       17.9221680197        17.467861515238
  C        22.7841519704       17.7967944026        16.707848745138
  C        34.4382040899       17.1939616997        21.910596830838
  C        35.7318746011       17.1404634361        21.168520727538
  C        35.9225376203       16.1878421141        20.155423753238
  C        37.1042108166       16.1718134547        19.419672714438
  C        38.1259502639       17.1070981537        19.676222878738
  C        37.9368204441       18.0393981155        20.714439560238
  C        36.7529068206       18.0610512526        21.447968952238
  C        39.3794384425       17.1144251978        18.888921584438
  C        39.3740371652       17.1331040113        17.467275461238
  C        38.1671419950       17.2673739244        16.711937498538
  C        20.3320967344       17.9409448710        16.758641769838
  C        20.3528947211       17.9469379211        19.572110559438
  C        34.4364874949       17.2457444035       10.2198353720
  C        35.7388125495       17.1587303801       10.9423345700
  C        35.9424872435       16.1927120028       11.9395357713
  C        37.1375946784       16.1644135740       12.6536067319
  C        38.1562546925       17.1021032201       12.3926381958
  C        37.9567453286       18.0422242941       11.3643111983
  C        36.7618909077       18.0745664486       10.6514795401
  C        39.4082944876       17.1180021965       13.1798121707
  C        39.3887809752       17.1356872876       14.6008844355
  C        38.1744589065       17.2671800374       15.3457180552
  C        35.1459303431       26.6419703040       15.2910821925
  C        35.1784093377       26.6562456170       12.4819410499
  C        26.5737496616       17.8279225585       10.3247959678
  C        25.2590247402       17.8732794548       11.0318782691
  C        24.9957465265       18.8795904201       11.9738065154
  C        23.7784922943       18.9063448037       12.6489280070
  C        22.7942821516       17.9275574243       12.4047015906
  C        23.0518210260       16.9465714654       11.4299700182
  C        24.2701580729       16.9171353032       10.7538728366
  C        21.5302750774       17.9112259894       13.1774286106
  C        21.5538529692       17.9044743044       14.5990562618
  C        22.7718564364       17.7886911482       15.3415854304
  C        14.0474147638       17.8292890794       10.2889684697
  C        15.3519476529       17.8876762829       11.0139730939
  C        15.6079413474       18.8915679394       11.9612081502
  C        16.8168927016       18.9139411238       12.6541666611
  C        17.8047691343       17.9352924191       12.4225904157
  C        17.5535141720       16.9557485053       11.4430829817
  C        16.3440446054       16.9287946797       10.7515226289
  C        19.0738271958       17.9197496120       13.1921352093
  C        19.0723074443       17.9193489973       14.6148061561
  C        17.8651839222       17.8219658805       15.3760548623
  C        46.8035747392       17.2174868818       10.1583267882
  C        45.5118460754       17.1511854912       10.9026347108
  C        45.3060446815       16.1683854940       11.8833572390
  C        44.1237773427       16.1446473894       12.6188108989
  C        43.1165902393       17.1039352911       12.3962952462
  C        43.3192985915       18.0660829865       11.3883132822
  C        44.5022639227       18.0934649533       10.6535091900
  C        41.8639972732       17.1123700973       13.1873559142
  C        41.8725022442       17.1130817361       14.6097546705
  C        43.0828577228       17.2026947695       15.3669034954
  C        20.3189642737       17.9310620665       15.3236053244
  C        20.2983920587       17.8988607917       12.5104052484
  C        46.7860911742       17.2303833794        21.879578864838
  C        45.4832316584       17.1216186170        21.164272404638
  C        45.2665212243       16.1196597910        20.206316147738
  C        44.0790192256       16.0891748790        19.479490921538
  C        43.0796174471       17.0576580165        19.694525229738
  C        43.2866031263       18.0294659444        20.691179395038
  C        44.4751989267       18.0662730437        21.412959541538
  C        41.8334801652       17.0783954324        18.898043561038
  C        41.8571974017       17.0943041537        17.477089997338
  C        43.0755929930       17.1912545662        16.733678052238
  C        46.1533264381       26.6371928185        16.716125934738
  C        46.1626271920       26.6561538524        19.525763063838
  C        14.0460699585       17.8324558959        21.698731791838
  C        15.3671799082       17.9087975153        21.008994993238
  C        15.6395405827       18.9252714578        20.081128215838
  C        16.8686033401       18.9647377378        19.426552756938
  C        17.8532545255       17.9869110156        19.673722953838
  C        17.5877884302       16.9996250880        20.640162323338
  C        16.3607692327       16.9596224664        21.298360473638
  C        19.1206564899       17.9639029179        18.904736021338
  C        19.0967481937       17.9406417959        17.483158056438
  C        17.8771687003       17.8313601114        16.742094923338
  C        28.8258481249       14.1177659163       10.3988102951
  C        28.2319511134       12.9376891389       11.0913344233
  C        28.9588233431       12.1966256792       12.0350143921
  C        28.3664873099       11.1120751917       12.6791553652
  C        27.0335833965       10.7434424566       12.4044316404
  C        26.3292738703       11.4654021984       11.4240370210
  C        26.9182890215       12.5490342300       10.7789901445
  C        26.3641317240        9.6577344145       13.1590116079
  C        26.3380942053        9.6844132441       14.5799119348
  C        26.8365947061       10.7967472926       15.3296776702
  C        32.1798211138       21.2407863262       10.1444866829
  C        32.7755703428       22.4059745138       10.8632815680
  C        32.0260218100       23.0876579072       11.8344813186
  C        32.5971883138       24.1265904352       12.5629842177
  C        33.9333609883       24.5120326346       12.3408099181
  C        34.6652969156       23.8495722256       11.3373850681
  C        34.0965861603       22.8050777696       10.6108759816
  C        34.5624261616       25.5871475319       13.1413557976
  C        34.5526666367       25.5592800810       14.5629164333
  C        34.0398537969       24.4460081922       15.3009239272
  C        25.7174461956        8.6088616964       15.2932875084
  C        25.7298193803        8.6081726387       12.4801263756
  C        32.1021408463       21.2257750792        21.869398290738
  C        32.6925043236       22.3775555878        21.126006361138
  C        31.9575274249       23.0362982251        20.128151190538
  C        32.5373139877       24.0671047144        19.392074154438
  C        33.8656086858       24.4685783818        19.635449180238
  C        34.5830893606       23.8227933248        20.660570102938
  C        34.0081673409       22.7869084095        21.392176946338
  C        34.5061434376       25.5498740105        18.851645705338
  C        34.5230884864       25.5406469703        17.429810940138
  C        34.0249906600       24.4375717713        16.667442588538
  C        40.6188457465       17.1010264042        16.755804801638
  C        40.6042482667       17.1038397308        19.565656675538
  C        28.7437367142       14.0745832561        21.777208362138
  C        28.1294342752       12.9239695762        21.049626494838
  C        28.8680478730       12.2084031902        20.094515538938
  C        28.2845028825       11.1494809238        19.403677385038
  C        26.9457440005       10.7793291976        19.641883203238
  C        26.2243066076       11.4800035126        20.626436903238
  C        26.8067226060       12.5393762032        21.320053676938
  C        26.3032995949        9.6902774074        18.867379895938
  C        26.3071739171        9.7017802638        17.445520226138
  C        26.8196554082       10.8063437353        16.695231578438
  C        18.1354418139        3.1811145788       10.3171746358
  C        17.4060337777        4.2782908596       11.0156342441
  C        16.3902631596        3.9998747438       11.9430996167
  C        15.7424883748        5.0398149196       12.6065887383
  C        16.0943929543        6.3835613364       12.3669850683
  C        17.0837834042        6.6531379819       11.4032376164
  C        17.7329459622        5.6158398441       10.7381862854
  C        15.4700425799        7.4912099287       13.1300784883
  C        15.4852908488        7.4904512883       14.5517948116
  C        16.1868578740        6.4968300835       15.3049467689
  C        42.9459485874       31.8595909242       10.0729040220
  C        43.6463816807       30.7719324247       10.8168705355
  C        44.5917197952       31.0933031719       11.8031071505
  C        45.1974665053       30.0877809608       12.5507845465
  C        44.8712842228       28.7346851369       12.3357610269
  C        43.9457161389       28.4203064155       11.3223188150
  C        43.3368592407       29.4254174525       10.5742721393
  C        45.4888481916       27.6553764334       13.1389521529
  C        45.4928770675       27.6809207212       14.5606492469
  C        44.8057540125       28.6889341728       15.3072868343
  C        14.8563670488        8.5629501683       15.2641882826
  C        14.8748540905        8.5630475796       12.4515120720
  C        42.9465145700       31.9616742952        21.798784988838
  C        43.6918096237       30.8855382156        21.085334784838
  C        44.6562946835       31.1914432759        20.112929698038
  C        45.2778493060       30.1718526684        19.395226059138
  C        44.9542231220       28.8215223248        19.632986784538
  C        44.0209073503       28.5238666591        20.643927376438
  C        43.3926166957       29.5406306822        21.356081396738
  C        45.5632176891       27.7241025841        18.847727132238
  C        45.5333705463       27.7173506784        17.426430445738
  C        44.8270234710       28.7075617414        16.673473022538
  C        35.1324682301       26.6314596273        16.725796359538
  C        35.1166401135       26.6080065579        19.535557807038
  C        18.1487317756        3.2470911919        21.696432761538
  C        17.4302546587        4.3439169681        20.987106892738
  C        16.4149165881        4.0526670795        20.063657779738
  C        15.7666293242        5.0833052009        19.388273440638
  C        16.1214459748        6.4285308465        19.610844124738
  C        17.1129917384        6.7118981381        20.567939535238
  C        17.7606381284        5.6829808650        21.247725198338
  C        15.4908691494        7.5241976355        18.838418478638
  C        15.4965348022        7.5074468919        17.417283857838
  C        16.1931889845        6.5056944272        16.670552703838
  H        10.6724117684       12.4653032775        19.894915997738
  H        11.6946972408       10.5505122979        18.653052765438
  H        15.3923034191       11.1694788463        20.761233931538
  H        14.3518453074       13.0722288699        22.006396534538
  H        13.3761670608       11.6311145003        17.191132155438
  H        50.3228187710       22.7481768465        19.976479279938
  H        49.3197461534       24.6226708392        18.670490404038
  H        45.6425525028       24.1616471721        20.853989026638
  H        46.6634754996       22.2906442934        22.162258263538
  H        47.6299403260       23.5758992208        17.236041182538
  H        14.8727348844        8.5885720445        20.598336615238
  H        50.2870925919       22.7023332443       12.0606477478
  H        49.2692380262       24.5752494463       13.3606869391
  H        45.6109750531       24.1099010882       11.1455636593
  H        46.6530478887       22.2544839909        9.8312678194
  H        47.6079214466       23.5518730520       14.7969103250
  H        40.6416667063       17.0898189254       11.4237912429
  H        48.6872653052       14.0949052136        23.789852299138
  H        10.6811346403       12.4663734341       12.0929095153
  H        11.6893715093       10.5244231800       13.2966189824
  H        15.3937631428       11.1594526333       11.2062061014
  H        14.3653510398       13.0878839554        9.9909676329
  H        13.3756780670       11.6220494311       14.7531249373
  H        47.9302436338       14.2184353129        9.7109502514
  H        47.7801581999       14.3738717599        22.485303093638
  H        49.0838300480       18.5522707686       10.8674917806
  H        10.4162869763       14.1343284421        7.9988202688
  H        24.4753819209        3.0299935461        19.896344065438
  H        25.6088747841        4.8888113119        18.663977032438
  H        23.2290439652        7.7545145006        20.814155926038
  H        22.1145549739        5.8861283926        22.048860602938
  H        23.8104074672        5.7937489235        17.226149721238
  H        36.3762490619       32.1873936970        19.957075276838
  H        35.2517917919       30.3622916648        18.677655658838
  H        37.5144035935       27.4393828872        20.877583688638
  H        38.6190710584       29.2773567049        22.165571832038
  H        37.0271271425       29.4487836683        17.263627352438
  H        25.7084955294        8.6133371285        20.628091173738
  H        36.4556722136       32.2413197562       12.1109132112
  H        35.3442616233       30.4226681084       13.4061571175
  H        37.5307691080       27.4875935661       11.1448144445
  H        38.6169291435       29.3180499774        9.8372140951
  H        37.0472115038       29.4680539714       14.8253944577
  H        46.1098115025       26.5878544775       11.3856424754
  H        44.6682818501       35.1162012721        23.803794128738
  H        24.4537539392        3.0371782242       12.0729620166
  H        25.6016237191        4.8727730139       13.3127697198
  H        23.2031573541        7.7694679623       11.2268136365
  H        22.0669810871        5.9221110382        9.9864860467
  H        23.8126774475        5.7932062963       14.7876446173
  H        44.9538875941       34.3904287639        9.6951915357
  H        44.9018820564       34.2069708357        22.480348984338
  H        40.6661889193       33.2093529256       10.8532960216
  H        23.1506054897        1.9581187327        8.0039416003
  H        25.8272664384       19.6469169063        19.887019161338
  H        23.6561563831       19.6981937776        18.662079141838
  H        22.3463510566       16.2358820944        20.852421498938
  H        24.5219945382       16.2015959343        22.078328686838
  H        23.7251193715       17.6761592294        17.236838264438
  H        35.1265444385       15.4748702146        19.952694232638
  H        37.2514154470       15.4247136583        18.642788088238
  H        38.7174365836       18.7698630340        20.916834409938
  H        36.5901086641       18.7960066529        22.232955486238
  H        37.2305832485       17.4004694859        17.245571870038
  H        20.3591243769       17.9872760463        20.659971638138
  H        35.1489385789       15.4798353233       12.1523508629
  H        37.2946581510       15.4104660843       13.4218580748
  H        38.7361087462       18.7728493646       11.1577831626
  H        36.5880670128       18.8170580185        9.8763421758
  H        37.2429081427       17.3993716105       14.8035921245
  H        35.1514720554       26.6821491967       11.3942274687
  H        28.4981098600       21.0819407561        23.874863900938
  H        25.7571411773       19.6347818665       12.1563490318
  H        23.5744246432       19.6909953391       13.3743316577
  H        22.3002240564       16.1842089038       11.2352964585
  H        24.4842406274       16.1481383696       10.0154691063
  H        23.7034016743       17.6615867761       14.7982880455
  H        28.9998776539       21.7274224851        9.7422430178
  H        29.1941802253       21.7192308822        22.559023771138
  H        32.0663963005       18.6004115322       10.9730552375
  H        27.4017623908       19.0696695295        8.0759474370
  H        14.8489705807       19.6501461891       12.1391124666
  H        17.0111876783       19.6989414678       13.3818744641
  H        18.3054234369       16.1921189352       11.2547333550
  H        16.1392819933       16.1590319928       10.0112277936
  H        16.9226243962       17.7063859353       14.8489095377
  H        46.0899997842       15.4364356524       12.0629823328
  H        43.9661459430       15.3745683370       13.3707908057
  H        42.5503033914       18.8152537106       11.2115548318
  H        44.6742020191       18.8510294445        9.8924109394
  H        44.0243587512       17.3119726871       14.8362444983
  H        20.2927693463       17.9267347128       11.4222053537
  H        46.0445083907       15.3797579095        20.032671646238
  H        43.9131061246       15.3118351560        18.736786060638
  H        42.5191841622       18.7813719279        20.862726664638
  H        44.6572138997       18.8352647702        22.159673339238
  H        44.0116688239       17.2906324933        17.275604575338
  H        46.1996722789       26.6828014362        20.613199549138
  H        52.7413290222       21.0627188480        8.1946989451
  H        14.8781587824       19.6781852246        19.889621364738
  H        17.0787829002       19.7560292244        18.710177907438
  H        18.3394079393       16.2384217525        20.839024441038
  H        16.1408241900       16.1843432847        22.028268222938
  H        16.9435355400       17.7230700049        17.285850299938
  H        52.3229706056       21.6734618900        22.283926680038
  H        52.0136820486       21.7024054475        9.4957073702
  H        49.0679385756       18.6077427590        21.193853606638
  H        13.2477664359       19.0161701569        23.967226532538
  H        29.9861367899       12.4812854264       12.2512032501
  H        28.9328074613       10.5380567074       13.4094218437
  H        25.2992962003       11.1925651688       11.2036403831
  H        26.3701620522       13.1256703443       10.0382282441
  H        27.2078221183       11.6643024816       14.7926413161
  H        30.9991358913       22.7782784581       12.0133505273
  H        32.0107743881       24.6543876557       13.3119442573
  H        35.6991852738       24.1386693508       11.1599520770
  H        34.6669797835       22.2685274079        9.8561374196
  H        33.6807200094       23.5791400824       14.7537706384
  H        25.7672413333        8.5896354364       11.3922806943
  H        30.9346706464       22.7202940434        19.936014253938
  H        31.9604020672       24.5797093108        18.625331604738
  H        35.6112897733       24.1217207984        20.853822058038
  H        34.5674166610       22.2661162766        22.165949876938
  H        33.6546514808       23.5639325393        17.196028550638
  H        40.5998669372       17.0624930879        20.653181277238
  H        32.5171708632       14.1531924601        8.2430402825
  H        29.9019765138       12.4922928276        19.912474344338
  H        28.8649085269       10.5916701495        18.671960010438
  H        25.1885411715       11.2067637937        20.817463395138
  H        26.2459907502       13.0966643698        22.066723604238
  H        27.1763875591       11.6812682101        17.230792963038
  H        33.2947369851       14.2006144426        22.429615878138
  H        33.4093647898       14.3701490909        9.6123758601
  H        32.1054430450       18.5216890128        21.147942939538
  H        30.2347746406       14.1923513632        8.0715785869
  H        16.1181881635        2.9633684749       12.1294495561
  H        14.9530025415        4.8204018101       13.3221976522
  H        17.3662310524        7.6860214872       11.2101863178
  H        18.5150397475        5.8185848614       10.0104253644
  H        16.7534024027        5.7394907416       14.7714361807
  H        44.8278422069       32.1404064389       11.9774024913
  H        45.9372196320       30.3415975480       13.3068202273
  H        43.6833202740       27.3781979039       11.1519894651
  H        42.6004842468       29.1900584821        9.8093819854
  H        44.2304745832       29.4367580107       14.7689824816
  H        14.8511917157        8.5463854199       11.3632883314
  H        44.8997646791       32.2341273566        19.921393380438
  H        46.0246971666       30.4131051447        18.641937375438
  H        43.7641728039       27.4841172494        20.835680279638
  H        42.6462921757       29.3178512915        22.114701224938
  H        44.2685790839       29.4704925580        17.208060228838
  H        35.0735243828       26.6207905718        20.622996174938
  H        36.6051324727       35.1341619850        8.1805430907
  H        16.1436748541        3.0131126482        19.894068736438
  H        14.9741762857        4.8564917835        18.678323004838
  H        17.3966667489        7.7473456834        20.744684351138
  H        18.5436288370        5.8934617509        21.972357377138
  H        16.7646991709        5.7554894131        17.208956764238
  H        36.2785529644       34.4827560197        22.262826920238
  H        36.3806220800       34.2093321439        9.4995994537
  H        40.5806658736       33.2030697012        21.143310244338
  H        17.4710175752        1.9477359712        23.964005292638
  H        29.2751828247       19.4488065961       12.5471027735
  H        29.3446067971       19.3651901708        19.519054120238
  H        30.8085539395       15.6374708371        19.645124610338
  H        30.9748183485       15.5146581787       12.3677777801
  H        28.0246486400       18.1243177672       14.3703582443
  H        29.2750568444       15.7937990548       14.6885113677
  H        31.2121457976       19.8024283306        17.448690444238
  H        32.8112689966       17.4965223724        17.410200379038
  H        33.4209448056       17.3308237881       14.3885930495
  H        18.8530425906        0.8690538739       12.3351403600
  H        40.5278438156       35.2286856753        19.941731803138
  H        42.3245267028       34.4191376384        19.579981436038
  H        22.0876454108        0.6920950836       12.3518801116
  H        11.5968669980       18.7129005039       12.3825555564
  H        52.2652248593       18.4313099881        19.667230578638
  H        49.2555756990       16.4766839151        19.574042153638
  H        10.1507593865       15.7981914407       12.2925572482
  H        50.8504172302       17.6924500547        19.943947932838
  H        10.0464277264       17.3946141437       12.0519257151
  H        20.2141377964        0.0022466136       12.0420960532
  H        39.1835468796       36.1241773903        19.676043057438
 Ni        30.9031149160       17.8430516946        18.822095280338
 Ni        31.1140540590       16.6940896606       15.826278627938
 Ni        29.6343358039       18.7621026468        16.067384672338
 Ni        30.0456178553       17.4190915149       13.1587008798
  O        10.6500531739       14.3650761353        21.475684783238
  O        12.6132235417       14.6575511616        22.573734657438
  O        49.1479297255       16.8458940009        23.979614246638
  O        50.3502854893       20.9357915958        21.637842170438
  O        48.3485636468       20.5932661410        22.655747591738
  O        11.0519128283       17.0537637243        22.490603889838
  O        50.3210140431       20.8816435801       10.4068690010
  O        48.3467252535       20.5867423675        9.3271700288
  O        49.5436955298       18.2484003920       10.0682627012
  O        12.3591624997       18.6246579926        7.9997060606
  O        48.6933169625       14.1485066279        22.741140765238
  O         8.2099088027       14.2104539054        9.3225756428
  O        10.7353036176       14.5067210580       10.6642940648
  O        12.5718328468       14.5828224853        9.3285170983
  O        22.8444583956        2.0433377328        21.476718755138
  O        21.6056267438        3.5924257300        22.579280966138
  O        42.0583152667       34.1375875238        23.968925707738
  O        37.9817650098       33.1381963602        21.562359512138
  O        39.2181818435       31.5762531245        22.656510089638
  O        20.3085408010        1.0400031677        22.492077018138
  O        38.0247340639       33.1859133287       10.4151568369
  O        39.2192857741       31.5838470081        9.3263387317
  O        40.6523224837       33.7694785089       10.0602934627
  O        18.2555642403        1.3763663397        7.9968162426
  O        44.6221596282       35.1006161107        22.748593270238
  O        24.2054036528        0.0000145872        9.3207949746
  O        22.7533712260        2.0579893473       10.5841697721
  O        21.6255911230        3.5971478248        9.3445348378
  O        27.4991563128       18.7543070162        21.486061026738
  O        26.7663410985       16.9346697555        22.641820879538
  O        30.6651409626       19.3993381922        8.0474174313
  O        33.5840145218       16.2779347710        21.656369190138
  O        34.2753345507       18.1686047102        22.726309839938
  O        29.5762181095       17.0606692629        22.573221811738
  O        33.5536185882       16.3508327562       10.4857736975
  O        34.2986518869       18.2274603887        9.4135071074
  O        31.6546453297       18.3159536032       10.1414729337
  O        30.3255154162       15.1595040288        8.0772090606
  O        28.5532315639       21.0332132613        22.823732244738
  O        28.5135192335       20.9562125629        9.4049486856
  O        27.4596540892       18.6791602338       10.6584732201
  O        26.6951576596       16.9285414669        9.4125772878
  O        13.1488462666       18.6929561399       10.5874387983
  O        13.9197457341       16.9163795147        9.4053485009
  O        50.5962615045       19.3502187311        8.0205830946
  O        47.6827735507       16.3270242677       10.4174548714
  O        46.9505529195       18.1756577173        9.3254813895
  O        11.0699003065       17.0154680735        9.4895785449
  O        47.6768372850       16.3353953424        21.643223800238
  O        46.9268621529       18.2356720018        22.654127943138
  O        49.5688519053       18.3176958302        21.972201716238
  O        10.3187140649       15.1001579152        7.9970855538
  O        52.6707610685       21.0278433251        9.2418127303
  O        12.1468312535       20.8911945716        22.663090723038
  O        13.1079862984       18.6137220999        21.315479945238
  O        13.9574069229       16.9872263263        22.655021181838
  O        30.0079532534       14.5006922193       10.7324807655
  O        28.0958184625       14.6540421144        9.4964327426
  O        32.1388614447       16.8564351106        8.0723864547
  O        30.9653992135       20.9524329748       10.4080647815
  O        32.9472057315       20.6010841407        9.3383786347
  O        29.5669307176       17.0770958723        9.5726173515
  O        30.8727865907       20.9422569560        21.649566674238
  O        32.8778901085       20.5865464360        22.655187839538
  O        31.6864830280       18.2513031635        21.983848381238
  O        28.2895638260       18.6762865171        8.0711920393
  O        32.4913390970       14.2152162224        9.3260975004
  O        32.4019103714       14.2164874773        22.813041383638
  O        29.9120232826       14.4513993434        21.412542117938
  O        28.0526989286       14.5843038589        22.730383356838
  O        17.8892818111        1.9666932800       10.6627791556
  O        18.9563350449        3.5271947774        9.4079910867
  O        39.1686482686       34.1388906158        7.9972219662
  O        43.2802069668       33.0589905827       10.3317420385
  O        42.0345578252       31.5064502842        9.2416465499
  O        20.3178029825        1.0368967960        9.4800683848
  O        43.2760888712       33.1826200606        21.564698658538
  O        42.0052912444       31.5841173937        22.572771481738
  O        40.5790607648       33.7751233014        21.925873918838
  O        22.3674511679        1.3848990299        7.9980614521
  O        36.6727726448       35.0998390483        9.2332329284
  O        16.4456319354        0.0643903875        22.658122121238
  O        17.9365464541        2.0434154118        21.316212054638
  O        18.9191691444        3.5931131667        22.655806158738
  O        29.8559138955       18.7633580469        20.091443262938
  O        29.8710415137       18.9076209866       11.9921907928
  O        31.2217136387       16.4108951461        20.070888769638
  O        31.2916345478       16.3989446667       12.0839106749
  O        31.9792340720       16.9970101861        17.485454381438
  O        30.1814777124       15.9791625290       14.3829902593
  O        32.8360876349       16.5568807614       14.4113419750
  O        30.4262248502       19.2699150077        17.667735289138
  O        28.9377204921       18.4609257615       14.3338948928
  O        39.4566072786       35.2435907397        19.991800914838
  O        19.1409368837        0.0045007542       11.9905737051
  O        41.9693072245       35.1723656294        20.076973460138
  O        21.6913035436       -0.0692513259       11.8960271527
  O        51.3652870860       18.6143025386        19.995195736838
  O        10.7510849531       18.7471042058       11.9049335674
  O        50.0798650819       16.4127639285        20.081532451938
  O         9.5247664098       16.4830260809       11.9912196244
 Zr         9.2978020133       16.0526443132        22.172305746938
 Zr        49.8369901626       16.0066973708        9.7464242978
 Zr        22.0733115682        0.0303000340        22.178865931238
 Zr        42.4610992859       35.1540741961        9.8013465905
 Zr        29.6077725887       19.0722411865        22.248874568538
 Zr        29.5758931806       19.1827869672        9.8468535221
 Zr        11.0387547788       19.0517994511        9.8278751423
 Zr        11.0445937058       19.1546956405        22.240660536938
 Zr        31.3574753141       16.1218603672        9.8437402166
 Zr        31.3893230285       16.0205119046        22.241908141438
 Zr        18.6012509305       -0.0008978356        9.7631620566
 Zr        18.5066972213       -0.0070281625        22.203656191138
 Zr        12.3031965914       16.3236556552        23.980191063538
 Zr        48.6172232528       18.8331023425        8.0104821243
 Zr        20.3159169540        2.4743546670        23.980950248538
 Zr        40.6438823226       32.6876187154        23.968052731938
 Zr        28.3409060471       16.3432462769        8.0779777715
 Zr        32.6305334521       18.8451063358        8.0462262682
  H        32.4152156438       16.5279130234       13.5035582725
  H        28.7018752389       19.8693580527        16.220860090338
  H        29.8131970344       17.0264988704        16.530638249038
