     573
 i =      377, E =     -4762.8484783502
  C        11.8589207789       14.0535209856        21.731373162838
  C        12.4564425300       12.8906447316        21.013045897138
  C        11.7046507877       12.1714496251        20.071662488538
  C        12.2810321925       11.1092394575        19.379341388838
  C        13.6217473898       10.7397732203        19.606770066038
  C        14.3550674453       11.4436600297        20.579889510038
  C        13.7821697049       12.5086532164        21.271369490138
  C        14.2612162650        9.6490458789        18.833401000038
  C        14.2563577573        9.6568822140        17.411702777338
  C        13.7430689322       10.7589526369        16.657806020538
  C        49.1269053964       21.2331138016        21.869489187738
  C        48.5501667810       22.4011429467        21.142432925138
  C        49.3001496997       23.0683414995        20.161328973838
  C        48.7332500166       24.1075278896        19.428150399538
  C        47.4027730691       24.5092966148        19.656897963738
  C        46.6719127513       23.8606176678        20.670603235338
  C        47.2343345242       22.8156793285        21.399926473838
  C        46.7725080595       25.5869883881        18.859627957038
  C        46.7613832407       25.5573396800        17.437858143638
  C        47.2613254368       24.4422429485        16.694363412038
  C        14.8602058293        8.5704996643        16.698428210538
  C        14.8921455812        8.5971810060        19.510030729838
  C        49.1133210927       21.2034559922       10.1453332186
  C        48.5279951023       22.3649256771       10.8724414139
  C        49.2671606840       23.0254180405       11.8655417191
  C        48.6908730839       24.0599875564       12.5970320321
  C        47.3605511609       24.4569702291       12.3586481814
  C        46.6402498715       23.8123428447       11.3348657455
  C        47.2137593083       22.7764291691       10.6030609394
  C        46.7220771289       25.5319099175       13.1497036608
  C        46.7336444281       25.5281805298       14.5714184935
  C        47.2490648617       24.4289551972       15.3278042152
  C        40.6273172855       17.1047220264       15.3215617422
  C        40.6384991648       17.1254490621       12.5118320655
  C        11.8830232478       14.0865429542       10.2855198891
  C        12.4723113103       12.9107903365       10.9897932055
  C        11.7146822001       12.1774265107       11.9156894846
  C        12.2812444261       11.0949632504       12.5841059649
  C        13.6201372530       10.7213818845       12.3524629409
  C        14.3582479682       11.4371339012       11.3919106380
  C        13.7928502602       12.5183198003       10.7192198284
  C        14.2536546466        9.6245534545       13.1228424557
  C        14.2523544092        9.6444796045       14.5446782908
  C        13.7424840707       10.7534198261       15.2917626996
  C        22.5092489238        3.2445762821        21.739563864538
  C        23.2174092452        4.3493257464        21.032488191038
  C        24.2122388339        4.0684715892        20.084232226838
  C        24.8360555965        5.1070707574        19.397769745838
  C        24.4807355450        6.4491917189        19.638797640238
  C        23.5121056215        6.7215222679        20.622206617738
  C        22.8839638079        5.6847686381        21.307433583038
  C        25.0902865244        7.5550672289        18.864881711138
  C        25.0760218545        7.5468252978        17.443027061438
  C        24.3789365536        6.5485260251        16.690931411238
  C        38.3027060628       31.9301239789        21.839175363038
  C        37.5729045173       30.8405244032        21.129854969938
  C        36.6133124374       31.1442878483        20.152174656638
  C        35.9962018567       30.1238270754        19.434078848238
  C        36.3240672650       28.7748738297        19.672557633438
  C        37.2538974535       28.4784959442        20.686791633138
  C        37.8751976165       29.4977014322        21.403576273338
  C        35.7219255454       27.6832078425        18.875255698538
  C        35.7541977061       27.6981121685        17.453996016138
  C        36.4614102406       28.6998908477        16.717179689638
  C        25.7086034949        8.6145848158        16.728090367538
  C        25.6832100882        8.6298108811        19.540138068838
  C        38.3292390058       31.9624562560       10.1562511046
  C        37.6085023656       30.8889797033       10.8986642135
  C        36.6793819538       31.1973768490       11.9039481264
  C        36.0701788509       30.1785621982       12.6337657960
  C        36.3760380084       28.8262895018       12.3814815561
  C        37.2829268076       28.5277984812       11.3462506740
  C        37.8942639386       29.5431025409       10.6177906735
  C        35.7682653221       27.7270502141       13.1653677819
  C        35.7777876149       27.7206324823       14.5873170346
  C        36.4721691270       28.7110567434       15.3506558559
  C        46.1355656139       26.6207850239       15.2815624541
  C        46.0882095819       26.5803316993       12.4736601410
  C        22.4660819745        3.2567746313       10.2557767863
  C        23.1716031594        4.3645607063       10.9710197680
  C        24.1797198022        4.0761481047       11.9050133218
  C        24.8177989446        5.1046504117       12.5947843424
  C        24.4687381327        6.4522570076       12.3743195031
  C        23.4847340141        6.7339509933       11.4076854422
  C        22.8422253483        5.7056707642       10.7179277048
  C        25.1034697508        7.5479567510       13.1509878485
  C        25.0838336680        7.5424709479       14.5738552527
  C        24.3803355270        6.5478775583       15.3243199730
  C        26.6236979532       17.8633054012        21.769894920538
  C        25.3158854308       17.9105581535        21.047286989738
  C        25.0603143048       18.9020025347        20.086776612638
  C        23.8464148135       18.9245838353        19.402699583138
  C        22.8511809554       17.9584968710        19.655552834438
  C        23.1029970560       16.9900632240        20.645903073138
  C        24.3186419559       16.9623776949        21.328126545138
  C        21.5781098459       17.9445381528        18.890616266938
  C        21.5783194884       17.9227374231        17.467791767838
  C        22.7839556724       17.7977021139        16.707721784038
  C        34.4382201495       17.1939272766        21.910478776938
  C        35.7319873429       17.1399931812        21.168720673538
  C        35.9219331451       16.1877687499        20.155174243938
  C        37.1037768525       16.1711350549        19.419754101238
  C        38.1260028783       17.1057720157        19.676588793338
  C        37.9373689704       18.0379458651        20.715046475838
  C        36.7534874013       18.0599414743        21.448605571738
  C        39.3794205905       17.1128518568        18.889209103438
  C        39.3741110120       17.1310110941        17.467538727438
  C        38.1671894298       17.2645879583        16.712120186138
  C        20.3319013315       17.9415578092        16.758586210938
  C        20.3527461753       17.9470721245        19.572077416838
  C        34.4373500849       17.2459833724       10.2192531103
  C        35.7397532619       17.1587999573       10.9416702035
  C        35.9434302701       16.1919235809       11.9380747216
  C        37.1382704553       16.1632619446       12.6525709320
  C        38.1567985630       17.1014027052       12.3926548040
  C        37.9574044853       18.0422379997       11.3649703815
  C        36.7627139277       18.0750222605       10.6518259313
  C        39.4086951365       17.1168407079       13.1800294546
  C        39.3890585309       17.1337264261       14.6010975379
  C        38.1746550729       17.2644351110       15.3459063144
  C        35.1458140304       26.6422283060       15.2910473196
  C        35.1783886376       26.6564972234       12.4818989959
  C        26.5735002545       17.8279612814       10.3245564193
  C        25.2585605040       17.8734369052       11.0313910884
  C        24.9950446545       18.8799410468       11.9729955214
  C        23.7778547624       18.9066414078       12.6481850763
  C        22.7939086628       17.9275148530       12.4044045173
  C        23.0515792125       16.9463066083       11.4299324700
  C        24.2698806570       16.9169926417       10.7537352839
  C        21.5299938823       17.9112644805       13.1772913143
  C        21.5536006575       17.9048845530       14.5989330620
  C        22.7716457881       17.7894647129       15.3414515903
  C        14.0473652352       17.8293283839       10.2889046825
  C        15.3518543106       17.8877122622       11.0139579354
  C        15.6077931604       18.8916681430       11.9611256073
  C        16.8167213357       18.9140829633       12.6541093643
  C        17.8045208524       17.9353466645       12.4226402009
  C        17.5533519564       16.9557589600       11.4431685599
  C        16.3439091301       16.9287838035       10.7515829605
  C        19.0735672579       17.9198817974       13.1921430141
  C        19.0720749723       17.9197433750       14.6147978724
  C        17.8649626835       17.8224931376       15.3760719299
  C        46.8036481408       17.2174683634       10.1583822162
  C        45.5120075995       17.1510226567       10.9027375174
  C        45.3066323484       16.1684863353       11.8838129365
  C        44.1244540271       16.1445729633       12.6193686033
  C        43.1169293730       17.1034628527       12.3966473157
  C        43.3191908159       18.0653014925       11.3882685239
  C        44.5020745487       18.0928525186       10.6533573237
  C        41.8643692726       17.1115559870       13.1877019466
  C        41.8727838516       17.1118776825       14.6101044679
  C        43.0830547477       17.2017590413       15.3673423761
  C        20.3187424610       17.9315441519       15.3235495881
  C        20.2980827888       17.8987449886       12.5103539889
  C        46.7861054278       17.2303428148        21.879608728538
  C        45.4832544246       17.1214245890        21.164418964538
  C        45.2666996849       16.1194248633        20.206474761038
  C        44.0791770408       16.0887047135        19.479739111338
  C        43.0796051609       17.0569933598        19.694832042438
  C        43.2864047044       18.0287993793        20.691533832938
  C        44.4750399533       18.0658526356        21.413227003438
  C        41.8334755296       17.0773647522        18.898375641938
  C        41.8572650783       17.0929626452        17.477427839438
  C        43.0756782164       17.1902497657        16.734102406038
  C        46.1533087821       26.6372017154        16.716120941838
  C        46.1626137739       26.6561470465        19.525757565338
  C        14.0460138700       17.8324566940        21.698744090738
  C        15.3671360342       17.9088923860        21.009037700338
  C        15.6394405605       18.9254540026        20.081261943938
  C        16.8684875852       18.9650214005        19.426671810138
  C        17.8531375613       17.9871804554        19.673749910538
  C        17.5877328747       16.9997956004        20.640102858638
  C        16.3607261711       16.9597057877        21.298313705238
  C        19.1204988817       17.9642624378        18.904721416238
  C        19.0965638164       17.9411549227        17.483136750838
  C        17.8769550170       17.8319782827        16.742106444738
  C        28.8251856443       14.1174592010       10.3985851554
  C        28.2310489554       12.9373348229       11.0909386627
  C        28.9582273131       12.1960934019       12.0342232273
  C        28.3660686892       11.1115251436       12.6784637946
  C        27.0330120201       10.7431274918       12.4042428213
  C        26.3283636826       11.4652589860       11.4242236017
  C        26.9172635552       12.5488852794       10.7790148633
  C        26.3638624802        9.6573941781       13.1590042940
  C        26.3385257368        9.6838353575       14.5799247858
  C        26.8377196472       10.7958927653       15.3296340653
  C        32.1797772088       21.2408077799       10.1445552930
  C        32.7754240476       22.4063218483       10.8631207170
  C        32.0258489337       23.0882515544       11.8341074586
  C        32.5970321165       24.1271720103       12.5626177869
  C        33.9333333335       24.5123026438       12.3407261041
  C        34.6653114106       23.8496725046       11.3374538185
  C        34.0965461708       22.8051902973       10.6109460706
  C        34.5623874707       25.5874059161       13.1412812064
  C        34.5526277949       25.5595190264       14.5628370958
  C        34.0398998992       24.4461889888       15.3008205812
  C        25.7180305897        8.6082924093       15.2934438452
  C        25.7292125194        8.6079784328       12.4802525367
  C        32.1025747816       21.2261019453        21.870199778538
  C        32.6932728577       22.3776179838        21.126444075838
  C        31.9580920089       23.0362747280        20.128675768738
  C        32.5377813223       24.0669903588        19.392356889938
  C        33.8661647626       24.4683918182        19.635407233638
  C        34.5838630949       23.8225890757        20.660356007138
  C        34.0090430731       22.7867615426        21.392186701538
  C        34.5064313940       25.5498376027        18.851599661038
  C        34.5232376214       25.5407299699        17.429776863338
  C        34.0251511277       24.4376948724        16.667340195138
  C        40.6189470143       17.0991861079        16.756095292738
  C        40.6042360199       17.1027568454        19.565933566038
  C        28.7435433623       14.0745566632        21.777260310338
  C        28.1295633428       12.9236307997        21.049956280038
  C        28.8684265106       12.2082145841        20.094933135038
  C        28.2850499846       11.1492655379        19.403994111138
  C        26.9462756908       10.7790476356        19.641999210238
  C        26.2246404331       11.4795486384        20.626534176738
  C        26.8068842217       12.5389104189        21.320272477338
  C        26.3040417063        9.6899566549        18.867467721638
  C        26.3081483429        9.7012005783        17.445605715838
  C        26.8210715743       10.8054670083        16.695193204438
  C        18.1354162977        3.1811151966       10.3171611640
  C        17.4060290551        4.2782926250       11.0156402640
  C        16.3902624119        3.9998853568       11.9431105484
  C        15.7424976445        5.0398327180       12.6066029689
  C        16.0944169076        6.3835746985       12.3670009199
  C        17.0837924681        6.6531407113       11.4032351060
  C        17.7329464269        5.6158371138       10.7381809349
  C        15.4700291103        7.4912084160       13.1300867244
  C        15.4853160349        7.4904733291       14.5518011328
  C        16.1868752273        6.4968425661       15.3049459309
  C        42.9459667563       31.8595830705       10.0728836922
  C        43.6463933113       30.7719266517       10.8168554341
  C        44.5917227989       31.0933047868       11.8030990133
  C        45.1974611957       30.0877842366       12.5507878485
  C        44.8712936259       28.7346850030       12.3357512751
  C        43.9457129350       28.4203020241       11.3223207317
  C        43.3368683542       29.4254131306       10.5742646661
  C        45.4888569071       27.6553735688       13.1389362988
  C        45.4928839131       27.6809296618       14.5606343431
  C        44.8057512995       28.6889367627       15.3072759201
  C        14.8563608691        8.5629509419       15.2642033970
  C        14.8748775094        8.5630609638       12.4515168153
  C        42.9465255251       31.9616679006        21.798782277238
  C        43.6918092720       30.8855299529        21.085333461038
  C        44.6562776156       31.1914482656        20.112916240838
  C        45.2778389578       30.1718514405        19.395217953038
  C        44.9541932538       28.8215181135        19.632961584238
  C        44.0208851965       28.5238619604        20.643911388238
  C        43.3925859013       29.5406263564        21.356062381838
  C        45.5631913371       27.7240874511        18.847725984238
  C        45.5333706061       27.7173681389        17.426430194538
  C        44.8270072136       28.7075601256        16.673463094438
  C        35.1323833002       26.6316717005        16.725757928638
  C        35.1168497887       26.6080027479        19.535505166838
  C        18.1487694985        3.2470947676        21.696419630538
  C        17.4302910385        4.3439067384        20.987075914538
  C        16.4149202010        4.0526692443        20.063664449138
  C        15.7666338383        5.0833046966        19.388279021138
  C        16.1214428783        6.4285314979        19.610849621338
  C        17.1130118424        6.7118879907        20.567928847138
  C        17.7606578988        5.6829689158        21.247715136138
  C        15.4908437584        7.5241836681        18.838424939538
  C        15.4965438915        7.5074503720        17.417287981838
  C        16.1932039481        6.5057008292        16.670553068638
  H        10.6724098851       12.4653278192        19.894896738238
  H        11.6946685524       10.5505310784        18.653040616838
  H        15.3922553019       11.1694256649        20.761278995438
  H        14.3518034345       13.0721859608        22.006434834838
  H        13.3761434426       11.6310987598        17.191140486538
  H        50.3228145062       22.7482055967        19.976496048538
  H        49.3197492573       24.6227152347        18.670521317738
  H        45.6425185271       24.1616155625        20.853945598338
  H        46.6634217335       22.2905985167        22.162198206538
  H        47.6299671299       23.5758988624        17.236039846138
  H        14.8727115554        8.5885389789        20.598344149238
  H        50.2871458391       22.7024251758       12.0605476080
  H        49.2692716467       24.5753032398       13.3606352628
  H        45.6109698907       24.1098798191       11.1456002701
  H        46.6530465141       22.2544968673        9.8312638225
  H        47.6079539280       23.5518763723       14.7969035024
  H        40.6421711774       17.0895633551       11.4240680697
  H        48.6872535208       14.0948917124        23.789850298538
  H        10.6811495084       12.4663752828       12.0929195105
  H        11.6893835611       10.5244173813       13.2966196241
  H        15.3937786443       11.1594673437       11.2062229765
  H        14.3653583362       13.0879026140        9.9909864995
  H        13.3756695015       11.6220388851       14.7531304864
  H        47.9302495882       14.2183916837        9.7109403572
  H        47.7801498011       14.3738096745        22.485286756838
  H        49.0837854646       18.5522750044       10.8674667372
  H        10.4162426871       14.1343285810        7.9988126204
  H        24.4753627968        3.0298835522        19.896430347938
  H        25.6090594939        4.8886399057        18.664163070238
  H        23.2296574572        7.7544989434        20.814594807738
  H        22.1150096705        5.8861670833        22.049249823438
  H        23.8111295304        5.7932437521        17.226547728638
  H        36.3762097713       32.1874951373        19.957166429038
  H        35.2517146515       30.3624306127        18.677720490538
  H        37.5143097869       27.4394537849        20.877587075238
  H        38.6189869917       29.2773947861        22.165616454538
  H        37.0267842472       29.4491662990        17.263606956738
  H        25.7086962215        8.6133876993        20.628236815038
  H        36.4555769238       32.2414993080       12.1106830161
  H        35.3440703816       30.4229028840       13.4059620646
  H        37.5308298784       27.4877134010       11.1450204624
  H        38.6170714852       29.3181082885        9.8373656950
  H        37.0468669078       29.4684721175       14.8253998549
  H        46.1098350820       26.5878602810       11.3856292941
  H        44.6682776849       35.1162056081        23.803795863538
  H        24.4536024082        3.0369902010       12.0729309877
  H        25.6014458743        4.8725262961       13.3128914464
  H        23.2027820855        7.7693254009       11.2272889911
  H        22.0666782373        5.9220230911        9.9867614224
  H        23.8131517112        5.7926209996       14.7880816142
  H        44.9538822787       34.3904131530        9.6951721715
  H        44.9018792221       34.2069630969        22.480346637738
  H        40.6662205002       33.2093517732       10.8533018287
  H        23.1506102792        1.9581185201        8.0039864653
  H        25.8252570851       19.6494925467        19.889747167638
  H        23.6547716320       19.6998935780        18.663956274538
  H        22.3470476046       16.2347226310        20.850918171738
  H        24.5227761244       16.2004304916        22.076739021738
  H        23.7249092242       17.6772523239        17.236777696638
  H        35.1249739814       15.4762344078        19.951280412438
  H        37.2504630953       15.4242722823        18.642564238338
  H        38.7182667328       18.7680841482        20.917542630438
  H        36.5910303844       18.7947339884        22.233825897738
  H        37.2304950285       17.3971858443        17.245640113938
  H        20.3589684031       17.9871877712        20.659951414838
  H        35.1501634397       15.4782400339       12.1493430416
  H        37.2953367165       15.4086491499       13.4201746439
  H        38.7367528985       18.7730889822       11.1591743538
  H        36.5889834674       18.8180524972        9.8771686504
  H        37.2431232581       17.3963124147       14.8036915157
  H        35.1515210882       26.6823682659       11.3941836971
  H        28.4980484107       21.0828153632        23.875612278638
  H        25.7563549248       19.6351639043       12.1554738076
  H        23.5736066778       19.6914852683       13.3733228296
  H        22.3001717330       16.1836912502       11.2355375920
  H        24.4841471414       16.1478146326       10.0155691160
  H        23.7031640265       17.6625318297       14.7980565427
  H        29.0008743103       21.7271202130        9.7418328135
  H        29.1940346316       21.7192543996        22.558622668338
  H        32.0687739112       18.5985269471       10.9740726281
  H        27.4018671961       19.0701741289        8.0764995020
  H        14.8487995205       19.6502513718       12.1389350073
  H        17.0110267376       19.6991271384       13.3817652344
  H        18.3052638121       16.1921132055       11.2549166002
  H        16.1391289927       16.1589937864       10.0113213059
  H        16.9223917252       17.7069108473       14.8489450533
  H        46.0908713733       15.4368867106       12.0636010413
  H        43.9671932756       15.3747091594       13.3716470321
  H        42.5499176111       18.8141444332       11.2113406242
  H        44.6736476621       18.8501859267        9.8919471270
  H        44.0245577756       17.3114644386       14.8367803861
  H        20.2923951968       17.9263577564       11.4221513261
  H        46.0448436506       15.3797111167        20.032760300138
  H        43.9133722309       15.3113688082        18.737013421338
  H        42.5188177823       18.7805195768        20.863150233238
  H        44.6569427219       18.8348509178        22.159959206238
  H        44.0116793130       17.2900140931        17.276084041238
  H        46.1996327046       26.6827923751        20.613195213938
  H        52.7413126237       21.0627062424        8.1946923520
  H        14.8780219740       19.6783585609        19.889856782738
  H        17.0786460911       19.7563910841        18.710372302438
  H        18.3393949478       16.2386047650        20.838869821538
  H        16.1408164954       16.1843714953        22.028172338938
  H        16.9433329264       17.7237268017        17.285891858538
  H        52.3228967245       21.6734519736        22.283956594338
  H        52.0136210053       21.7023612751        9.4957057829
  H        49.0678815961       18.6077281631        21.193874106838
  H        13.2477382891       19.0162075909        23.967214247638
  H        29.9856493582       12.4806878185       12.2499874757
  H        28.9326170160       10.5372938915       13.4083869513
  H        25.2982645130       11.1925530905       11.2042285470
  H        26.3689713452       13.1256873475       10.0384985731
  H        27.2091292699       11.6633113618       14.7925080814
  H        30.9988559366       22.7790980897       12.0127129616
  H        32.0106067265       24.6551743659       13.3114251644
  H        35.6992846168       24.1385613319       11.1601720443
  H        34.6669541813       22.2684156590        9.8563630747
  H        33.6807731120       23.5793533171       14.7536003101
  H        25.7661501785        8.5896123759       11.3923909787
  H        30.9351122157       22.7202056812        19.937131405138
  H        31.9607233122       24.5796957526        18.625781270138
  H        35.6121322721       24.1214701837        20.853323853638
  H        34.5684112991       22.2659175428        22.165856065538
  H        33.6549367853       23.5640219847        17.195956736938
  H        40.5998543981       17.0617778760        20.653467564538
  H        32.5170968904       14.1538283443        8.2415385703
  H        29.9023272829       12.4923768189        19.913062196038
  H        28.8656027331       10.5914789952        18.672367864238
  H        25.1888816964       11.2061827174        20.817403445438
  H        26.2460773707       13.0960969208        22.066958667738
  H        27.1781857145       11.6802624634        17.230701169738
  H        33.2941419531       14.1992225197        22.428788803438
  H        33.4095145523       14.3691702595        9.6120028792
  H        32.1089214704       18.5237281816        21.150295266838
  H        30.2350054140       14.1923106669        8.0713558133
  H        16.1181918048        2.9633792819       12.1294733088
  H        14.9530185697        4.8204187437       13.3222179428
  H        17.3662348431        7.6860242819       11.2101920291
  H        18.5150386883        5.8185798255       10.0104200581
  H        16.7534446149        5.7395222885       14.7714373720
  H        44.8278370699       32.1404099866       11.9774006474
  H        45.9372225470       30.3415988517       13.3068203189
  H        43.6833258941       27.3781915433       11.1519836540
  H        42.6004912533       29.1900524095        9.8093768522
  H        44.2304828445       29.4367672774       14.7689640286
  H        14.8511913320        8.5463765048       11.3632992016
  H        44.8997658484       32.2341331191        19.921397718438
  H        46.0246936896       30.4131006534        18.641930781738
  H        43.7641452749       27.4841120139        20.835663143838
  H        42.6462710169       29.3178431859        22.114693408738
  H        44.2685692172       29.4704936526        17.208052268438
  H        35.0738148662       26.6206881110        20.622945945938
  H        36.6051352775       35.1341637501        8.1805435564
  H        16.1436817667        3.0131151245        19.894070328138
  H        14.9741597136        4.8564937614        18.678349357738
  H        17.3966663608        7.7473437756        20.744674305138
  H        18.5436655764        5.8934527985        21.972324057838
  H        16.7647285140        5.7555038088        17.208957436438
  H        36.2785956702       34.4827122489        22.262852611038
  H        36.3806578516       34.2093195008        9.4995777528
  H        40.5806507224       33.2030589583        21.143314098238
  H        17.4710096040        1.9477317365        23.964001937838
  H        29.2699543573       19.4524694724       12.5446801588
  H        29.2824944361       19.3312942681        19.537948927338
  H        30.7796169949       15.6559217925        19.648244694138
  H        30.9865867100       15.5106022024       12.3643024589
  H        28.0533607450       18.0624503014       14.4393410534
  H        29.2904202002       15.7710719232       14.6974324807
  H        31.2081504758       19.8321607802        17.462157720938
  H        32.7989944122       17.6083932607        17.354305844938
  H        33.4375646471       17.3099367868       14.3976829915
  H        18.8530244488        0.8690273996       12.3351697766
  H        40.5278683583       35.2287044930        19.941729830838
  H        42.3245368490       34.4191452196        19.579968559338
  H        22.0876433500        0.6920895515       12.3518905771
  H        11.5969114855       18.7128973535       12.3825455037
  H        52.2652407897       18.4312863590        19.667271019638
  H        49.2555970299       16.4766718836        19.574017628338
  H        10.1507856558       15.7981924513       12.2925629906
  H        50.8504119380       17.6924608285        19.943949322938
  H        10.0464376850       17.3946132879       12.0519240975
  H        20.2141250224        0.0022208294       12.0420948207
  H        39.1835605054       36.1241850233        19.676019205838
 Ni        30.9089955413       17.8784794003        18.822621510638
 Ni        31.1182423069       16.6937013699       15.826375140838
 Ni        29.7137853193       18.6758572607        16.070121996838
 Ni        30.0493430309       17.4112138806       13.1592472353
  O        10.6500563639       14.3650560304        21.475675348638
  O        12.6132242407       14.6575531674        22.573748033038
  O        49.1479100327       16.8458873841        23.979608344138
  O        50.3502755975       20.9357992138        21.637849382238
  O        48.3485562227       20.5932743748        22.655748266738
  O        11.0518843720       17.0537788337        22.490577668938
  O        50.3210210399       20.8816620959       10.4068518032
  O        48.3466999049       20.5867891500        9.3271639263
  O        49.5436909051       18.2483794515       10.0682594329
  O        12.3591585029       18.6246385893        7.9997081717
  O        48.6933201254       14.1485060728        22.741140964038
  O         8.2099115451       14.2104676795        9.3225584343
  O        10.7353049376       14.5067294436       10.6642561607
  O        12.5718301785       14.5828128512        9.3285114720
  O        22.8444657772        2.0433403457        21.476731122438
  O        21.6056277390        3.5924160149        22.579302425338
  O        42.0583365867       34.1375913050        23.968907228838
  O        37.9817750711       33.1382239358        21.562380324138
  O        39.2181772993       31.5762694162        22.656512988938
  O        20.3085540002        1.0399900683        22.492069880138
  O        38.0247417179       33.1859561361       10.4151202849
  O        39.2192881052       31.5838614691        9.3263234500
  O        40.6523097869       33.7694790710       10.0603064812
  O        18.2555485562        1.3763592183        7.9968394481
  O        44.6221716362       35.1006152598        22.748591699838
  O        24.2054007726        0.0000134520        9.3208006596
  O        22.7533696928        2.0579742191       10.5841519348
  O        21.6255732848        3.5971003121        9.3444934327
  O        27.4992583984       18.7544713918        21.485944696938
  O        26.7662083260       16.9349129027        22.641801206838
  O        30.6657805841       19.4005232663        8.0517323206
  O        33.5838797769       16.2781814132        21.656247137738
  O        34.2753794600       18.1686958715        22.726215401438
  O        29.5763589801       17.0605990379        22.573804819638
  O        33.5547608251       16.3511876247       10.4850639412
  O        34.2992867827       18.2283567149        9.4135225730
  O        31.6544031748       18.3158597952       10.1432399227
  O        30.3255321426       15.1594678048        8.0768781243
  O        28.5530636853       21.0335593253        22.824239853638
  O        28.5134599173       20.9563111277        9.4050906291
  O        27.4594640537       18.6791931736       10.6584829680
  O        26.6951302526       16.9286042769        9.4125390063
  O        13.1487872011       18.6929551884       10.5874161505
  O        13.9197581670       16.9163721951        9.4053489932
  O        50.5962404219       19.3502336070        8.0205692858
  O        47.6828885305       16.3270054621       10.4174210895
  O        46.9505701708       18.1756431447        9.3255036311
  O        11.0699016476       17.0154673182        9.4895920910
  O        47.6768831717       16.3353872014        21.643265911338
  O        46.9268899264       18.2356609775        22.654147051538
  O        49.5688341909       18.3177203403        21.972213705038
  O        10.3186673385       15.1001507885        7.9971311162
  O        52.6707867103       21.0278766680        9.2418132416
  O        12.1468252777       20.8911988679        22.663082256538
  O        13.1079699923       18.6137308593        21.315480803838
  O        13.9574352334       16.9872212500        22.655017560838
  O        30.0068900960       14.5003108501       10.7324929078
  O        28.0953883577       14.6540216486        9.4961527507
  O        32.1389396654       16.8567991034        8.0718547059
  O        30.9653582876       20.9525123799       10.4084036341
  O        32.9472874667       20.6011725102        9.3387138674
  O        29.5669462710       17.0772001876        9.5729937510
  O        30.8732684334       20.9431868014        21.650498027338
  O        32.8783211283       20.5863517555        22.655528287938
  O        31.6862370144       18.2521444054        21.983961130538
  O        28.2895257800       18.6765232230        8.0716051687
  O        32.4913721337       14.2151581716        9.3256716768
  O        32.4017446482       14.2166932943        22.813099584738
  O        29.9115696322       14.4517044950        21.411878486138
  O        28.0525935654       14.5842916498        22.730345328238
  O        17.8892760203        1.9667023015       10.6627957198
  O        18.9563383029        3.5272078780        9.4080099544
  O        39.1686217709       34.1388959322        7.9972008029
  O        43.2802175260       33.0589889559       10.3317204374
  O        42.0345598572       31.5064499525        9.2416380054
  O        20.3178039339        1.0369191848        9.4800633818
  O        43.2760949413       33.1826155913        21.564688931338
  O        42.0052942641       31.5841123265        22.572766994638
  O        40.5790468639       33.7751099668        21.925875220938
  O        22.3674662471        1.3848790047        7.9980876680
  O        36.6727772354       35.0998421826        9.2332318446
  O        16.4456314006        0.0643852279        22.658125242538
  O        17.9364976670        2.0434331721        21.316205521238
  O        18.9191596478        3.5931402498        22.655821519038
  O        29.8492836593       18.7705504053        20.099070713638
  O        29.8674194657       18.9084910693       11.9954833612
  O        31.2217365439       16.4157060406        20.068844481338
  O        31.2985022531       16.3960895265       12.0792553848
  O        32.0061755938       17.0563003071        17.471468106238
  O        30.1942068905       15.9678190798       14.3927963695
  O        32.8269182095       16.5562803949       14.4196711071
  O        30.4349591249       19.2755101090        17.666882298038
  O        28.9667325042       18.3944758978       14.3825394944
  O        39.4566332833       35.2436173503        19.991811486438
  O        19.1409233090        0.0044893100       11.9905644521
  O        41.9693178501       35.1723586667        20.076978023438
  O        21.6913033670       -0.0692409058       11.8960183190
  O        51.3652999415       18.6143108258        19.995206147338
  O        10.7511108771       18.7471040244       11.9049481589
  O        50.0798748044       16.4127654008        20.081530945238
  O         9.5248083842       16.4830241175       11.9911909989
 Zr         9.2977436346       16.0526224519        22.172295841738
 Zr        49.8369394976       16.0066924206        9.7464339821
 Zr        22.0733218852        0.0302899997        22.178859638138
 Zr        42.4610842550       35.1540347720        9.8013369327
 Zr        29.6083444894       19.0732781382        22.253802579338
 Zr        29.5760276058       19.1825904937        9.8482652570
 Zr        11.0386687601       19.0518285777        9.8278665900
 Zr        11.0445354004       19.1547074128        22.240677878138
 Zr        31.3585035837       16.1212280586        9.8429654142
 Zr        31.3891868153       16.0207811503        22.237834045638
 Zr        18.6012686377       -0.0009042272        9.7631450013
 Zr        18.5067078789       -0.0070020642        22.203653509538
 Zr        12.3031082576       16.3236407657        23.980174069438
 Zr        48.6171609591       18.8330995073        8.0104986438
 Zr        20.3158916335        2.4743542135        23.980916175538
 Zr        40.6438940049       32.6876467810        23.968064973338
 Zr        28.3420560060       16.3429017989        8.0782470612
 Zr        32.6312830859       18.8442788571        8.0469283336
  H        32.4178694932       16.5279038036       13.5064035410
  H        28.8053093333       19.8112336852        16.181006972138
  H        29.8322575325       16.9874551713        16.555218158438
