     569
 i =      166, E =     -4729.5216912575
  C        11.8587354250       14.0535680937        21.731390855738
  C        12.4561999250       12.8905587737        21.013145681738
  C        11.7045479884       12.1718861293        20.071259692938
  C        12.2808629014       11.1096708698        19.378872073838
  C        13.6213249194       10.7395928483        19.606818394538
  C        14.3544018410       11.4428736451        20.580570660638
  C        13.7815889510       12.5078677933        21.272115253838
  C        14.2608442568        9.6489411937        18.833400075438
  C        14.2562145805        9.6568965443        17.411694696938
  C        13.7431216075       10.7590445275        16.657770964938
  C        49.1266840254       21.2332307335        21.869499453638
  C        48.5499277954       22.4011215448        21.142433307038
  C        49.3000097445       23.0684925576        20.161494866138
  C        48.7330812629       24.1076127083        19.428277473038
  C        47.4025083710       24.5092142596        19.656815335438
  C        46.6715068477       23.8602821350        20.670261863038
  C        47.2339426985       22.8153936341        21.399648038538
  C        46.7723010038       25.5869166778        18.859516231538
  C        46.7614266596       25.5573627525        17.437747559838
  C        47.2614445493       24.4423152590        16.694240904438
  C        14.8601259552        8.5705412076        16.698427328838
  C        14.8915353991        8.5969270424        19.510036926738
  C        49.1130914943       21.2034084745       10.1453437529
  C        48.5277471450       22.3647878463       10.8724040425
  C        49.2670195148       23.0255807566       11.8652475477
  C        48.6907008026       24.0601436891       12.5966917973
  C        47.3602386919       24.4568336127       12.3585568437
  C        46.6397831806       23.8118565641       11.3351033130
  C        47.2133228543       22.7759419369       10.6033203290
  C        46.7218037831       25.5317937895       13.1496032620
  C        46.7336549146       25.5281961989       14.5713079870
  C        47.2491757326       24.4290217548       15.3276877520
  C        40.6200573808       17.0588999138       15.3073629365
  C        40.6308443814       17.0868614192       12.4973488874
  C        11.8829211919       14.0865395569       10.2854086830
  C        12.4721592153       12.9106259809       10.9895847762
  C        11.7146864729       12.1777021785       11.9159463788
  C        12.2811711119       11.0952111963       12.5843976428
  C        13.6198574800       10.7211466813       12.3523482832
  C        14.3577275789       11.4363473323       11.3911839973
  C        13.7923999937       12.5175516022       10.7184623102
  C        14.2534397280        9.6244115442       13.1227951540
  C        14.2523062042        9.6444924493       14.5446400104
  C        13.7425492997       10.7534930063       15.2917216738
  C        22.5082276431        3.2431435426        21.741469109638
  C        23.2159701907        4.3485940690        21.036661392738
  C        24.2099595274        4.0692192305        20.087475165538
  C        24.8311682432        5.1094488870        19.401651764638
  C        24.4729734779        6.4500265987        19.645415393138
  C        23.5063256880        6.7209861982        20.630711550038
  C        22.8807939771        5.6826575216        21.315101364238
  C        25.0757291865        7.5573588730        18.870261260438
  C        25.0530742351        7.5504343792        17.448906280938
  C        24.3562942583        6.5494599767        16.700078616738
  C        38.2979277449       31.9276736068        21.841248823138
  C        37.5563708025       30.8398939433        21.138899866838
  C        36.5909074309       31.1485678652        20.167947119038
  C        35.9595155419       30.1321203714        19.456200077338
  C        36.2778664166       28.7801106246        19.691680526238
  C        37.2129705961       28.4788690640        20.700127672738
  C        37.8483042925       29.4943300340        21.411501453038
  C        35.6655170898       27.6930418148        18.892610557638
  C        35.7043609262       27.7077142685        17.470771494638
  C        36.4168407686       28.7082842588        16.737244055738
  C        25.6763524407        8.6218811323        16.731860727138
  C        25.6686388111        8.6326196510        19.543776961538
  C        38.3296945528       31.9604291225       10.1600522463
  C        37.6116455951       30.8876825391       10.9082948791
  C        36.6775053629       31.1975717920       11.9090241445
  C        36.0662381094       30.1809568976       12.6409935333
  C        36.3737542982       28.8270851249       12.3972758907
  C        37.2884796927       28.5271569562       11.3688283731
  C        37.9015352024       29.5402764482       10.6377750002
  C        35.7581308696       27.7291242175       13.1794957744
  C        35.7514851306       27.7264136891       14.6022188696
  C        36.4377004194       28.7184059946       15.3707757580
  C        46.1356155343       26.6208103410       15.2814501031
  C        46.0876974321       26.5800650373       12.4735533955
  C        22.4608384992        3.2551876720       10.2555857860
  C        23.1560405069        4.3649464297       10.9749455353
  C        24.1644622144        4.0808962509       11.9093128447
  C        24.7927118527        5.1127213193       12.6022481371
  C        24.4315679192        6.4570116937       12.3832629940
  C        23.4466437072        6.7345889250       11.4168285784
  C        22.8141667324        5.7030575892       10.7239851177
  C        25.0589857336        7.5556905266       13.1586287235
  C        25.0448481090        7.5492548058       14.5809540586
  C        24.3504792777        6.5500660467       15.3335361104
  C        26.6368077324       17.8300496847        21.700852993138
  C        25.3233154656       17.9106582879        20.999208663638
  C        25.0680713653       18.9099269192        20.046989946838
  C        23.8451665768       18.9472041270        19.379813734438
  C        22.8445317706       17.9890991869        19.641750467738
  C        23.0949802363       17.0178003602        20.629498809738
  C        24.3177908282       16.9751671563        21.295335662738
  C        21.5703327367       17.9764216031        18.881156262938
  C        21.5725757549       17.9460038426        17.459001925938
  C        22.7788804940       17.8111431875        16.701936511038
  C        34.4400284658       17.1905586179        21.907307449438
  C        35.7323147258       17.1333337225        21.165536286938
  C        35.9302347026       16.1625274772        20.170747890238
  C        37.1102084426       16.1420178710        19.432892898838
  C        38.1241740308       17.0913436244        19.667264439838
  C        37.9286024759       18.0423000395        20.687499933038
  C        36.7465188849       18.0680485575        21.424152835638
  C        39.3762600794       17.0933696132        18.876545243538
  C        39.3680859022       17.0908042767        17.454172923938
  C        38.1590739986       17.2029225495        16.697844675338
  C        20.3270589531       17.9617010582        16.749232177538
  C        20.3453656526       17.9781273760        19.562870706238
  C        34.4415319425       17.2363050370       10.1821986972
  C        35.7417381099       17.1344796564       10.9063147841
  C        35.9473752773       16.1458509759       11.8802239805
  C        37.1377124300       16.1082502918       12.6023387101
  C        38.1510558659       17.0591441307       12.3717393457
  C        37.9512558049       18.0218763444       11.3645087609
  C        36.7606440917       18.0637381792       10.6449156294
  C        39.4007275420       17.0682953067       13.1649029572
  C        39.3809642666       17.0775459404       14.5864483797
  C        38.1651043484       17.1945384114       15.3312577366
  C        35.1122119399       26.6497117059       15.3030142650
  C        35.1750081414       26.6558843112       12.4932030926
  C        26.5735042869       17.8244324298       10.3177843679
  C        25.2630604932       17.8642363999       11.0319105442
  C        25.0062758345       18.8640426507       11.9826010488
  C        23.7874729434       18.8940073692       12.6545795751
  C        22.7969878327       17.9239021582       12.4011607191
  C        23.0506943708       16.9463638943       11.4217195637
  C        24.2696696410       16.9143996321       10.7472498908
  C        21.5311975469       17.9126115590       13.1703853235
  C        21.5521406079       17.9112983700       14.5918647267
  C        22.7685271643       17.7938864283       15.3362184680
  C        14.0469370423       17.8303723616       10.2869205985
  C        15.3529414566       17.8912889628       11.0086210990
  C        15.6117340897       18.9006047642       11.9490403026
  C        16.8218294711       18.9250064920       12.6396610782
  C        17.8068254676       17.9427696401       12.4119361563
  C        17.5531361831       16.9580097863       11.4385556625
  C        16.3426136105       16.9293038630       10.7492221021
  C        19.0751176642       17.9275344583       13.1817172615
  C        19.0710347428       17.9322711317       14.6042561184
  C        17.8627506249       17.8389968683       15.3643176812
  C        46.8024152487       17.2152229408       10.1562989473
  C        45.5087569782       17.1418383358       10.8958571511
  C        45.3042365462       16.1530756442       11.8709349551
  C        44.1203086929       16.1207558134       12.6030156300
  C        43.1098171026       17.0771346233       12.3830587365
  C        43.3109424467       18.0449150155       11.3801082722
  C        44.4957658821       18.0809232099       10.6484262512
  C        41.8566402731       17.0763606576       13.1731268137
  C        41.8652650160       17.0742743188       14.5954158830
  C        43.0756611508       17.1728328761       15.3513416938
  C        20.3163709635       17.9448680910       15.3145798615
  C        20.3002811238       17.9012005033       12.5015660229
  C        46.7846902363       17.2316695772        21.876293093638
  C        45.4834935358       17.1243210589        21.155974385738
  C        45.2673754912       16.1205007046        20.199350098338
  C        44.0806862585       16.0876867115        19.470855682438
  C        43.0794043591       17.0559370399        19.680699427438
  C        43.2869422100       18.0313274223        20.674171066938
  C        44.4745541114       18.0700333088        21.398447528038
  C        41.8314945097       17.0684445023        18.884856786438
  C        41.8524808390       17.0690871750        17.463319236738
  C        43.0696405529       17.1673600661        16.718168301338
  C        46.1533980738       26.6372359159        16.715998676838
  C        46.1622406499       26.6559759826        19.525648595738
  C        14.0449947295       17.8334830502        21.698293802538
  C        15.3646630520       17.9139734296        21.005727167338
  C        15.6306304628       18.9334394653        20.079253642438
  C        16.8575661170       18.9792099994        19.421144451938
  C        17.8464353768       18.0049359000        19.664208078838
  C        17.5869887026       17.0138333257        20.628430327138
  C        16.3619192464       16.9674571147        21.289984126938
  C        19.1135978923       17.9888556684        18.894678077738
  C        19.0911009182       17.9631600065        17.472974491238
  C        17.8725401676       17.8522394497        16.730535181638
  C        28.8091089762       14.0941197006       10.3931141773
  C        28.1946029506       12.9232352418       11.0813275479
  C        28.9132138018       12.1881141049       12.0356378891
  C        28.3126478331       11.1123093923       12.6844175699
  C        26.9797168303       10.7494522864       12.4039591982
  C        26.2830233644       11.4660620662       11.4144989556
  C        26.8812651470       12.5413004439       10.7633024837
  C        26.3081887251        9.6694384596       13.1616047041
  C        26.2879942741        9.6967000114       14.5822399784
  C        26.7866280992       10.8103746375       15.3298623262
  C        32.1799119172       21.2388897969       10.1403552760
  C        32.7779520377       22.3992688843       10.8654350835
  C        32.0248883409       23.0806317556       11.8343808066
  C        32.5918811557       24.1218346439       12.5631111378
  C        33.9282167960       24.5103026625       12.3457557822
  C        34.6644110567       23.8464300442       11.3460384766
  C        34.0996444740       22.8000056205       10.6184209710
  C        34.5515812385       25.5881071609       13.1489229691
  C        34.5276985987       25.5643484680       14.5710542991
  C        34.0106684608       24.4517111801       15.3070381918
  C        25.6767056563        8.6178340059       15.2978371904
  C        25.6761707834        8.6180249641       12.4850671557
  C        32.0765999034       21.2002732522        21.859586669338
  C        32.6391255095       22.3697532312        21.125166873938
  C        31.9084449878       23.0079606329        20.110619998138
  C        32.4795512922       24.0496724821        19.381650898338
  C        33.7952826240       24.4814709157        19.644237406238
  C        34.5051362832       23.8574783780        20.688901435538
  C        33.9395957796       22.8137811227        21.415249322938
  C        34.4375525423       25.5642424890        18.861931246138
  C        34.4678131163       25.5523381426        17.439259131738
  C        33.9808270884       24.4465152587        16.673458345638
  C        40.6131496297       17.0611505566        16.742428957238
  C        40.6020075660       17.0985740821        19.552499725038
  C        28.7404838769       14.0649770262        21.775267449038
  C        28.1206627099       12.9186884592        21.048420987338
  C        28.8554479845       12.2023434582        20.090928567338
  C        28.2663959937       11.1479980357        19.398541859138
  C        26.9273191324       10.7823491741        19.640277346838
  C        26.2099035732       11.4828382160        20.627728296338
  C        26.7969643184       12.5391745129        21.321320425438
  C        26.2817027944        9.6947648602        18.868158983438
  C        26.2769131927        9.7091939843        17.446829829738
  C        26.7802629811       10.8172264291        16.695465742838
  C        18.1352395442        3.1807974093       10.3172024654
  C        17.4057841143        4.2780210652       11.0157940030
  C        16.3902553585        3.9995865340       11.9434880055
  C        15.7424370536        5.0395370669       12.6069624337
  C        16.0940810387        6.3832921030       12.3670982547
  C        17.0831980107        6.6528722388       11.4030752121
  C        17.7323637241        5.6155706179       10.7380378869
  C        15.4697885130        7.4910108246       13.1301354650
  C        15.4852070260        7.4904357029       14.5518484876
  C        16.1867904031        6.4968398778       15.3050189131
  C        42.9457599547       31.8594141769       10.0728099704
  C        43.6460609948       30.7717453367       10.8167865505
  C        44.5917404929       31.0930553433       11.8027278303
  C        45.1974161967       30.0875040161       12.5504015706
  C        44.8708576290       28.7344515890       12.3356527064
  C        43.9448537900       28.4201238973       11.3225994201
  C        43.3360623633       29.4252689557       10.5745368020
  C        45.4885063762       27.6551842726       13.1388452928
  C        45.4928095429       27.6808832397       14.5605377437
  C        44.8057134414       28.6889202036       15.3071632844
  C        14.8563173778        8.5629867251       15.2641996267
  C        14.8744765461        8.5627554804       12.4515353372
  C        42.9464154794       31.9614529192        21.798804398038
  C        43.6915660949       30.8853468330        21.085259855638
  C        44.6563891787       31.1912617908        20.113174422138
  C        45.2778701292       30.1716661469        19.395429862838
  C        44.9538853032       28.8213568392        19.632855474538
  C        44.0201227572       28.5237026758        20.643374532938
  C        43.3918743195       29.5404579782        21.355585132138
  C        45.5629750206       27.7239853068        18.847589355838
  C        45.5333644405       27.7173554880        17.426290706238
  C        44.8270117638       28.7075685126        16.673347780838
  C        35.0848481847       26.6420231786        16.738454478738
  C        35.0488286503       26.6216124887        19.548743598538
  C        18.1484204378        3.2468536244        21.696374356838
  C        17.4297573134        4.3436932526        20.987080093338
  C        16.4145588919        4.0524307972        20.063511471938
  C        15.7662040701        5.0830638536        19.388148164838
  C        16.1208734083        6.4282923078        19.610873308538
  C        17.1122405214        6.7116838224        20.568141213938
  C        17.7599275723        5.6827599899        21.247873763338
  C        15.4903885736        7.5240117951        18.838447344138
  C        15.4963253465        7.5074231154        17.417313320538
  C        16.1930565088        6.5056946761        16.670622443038
  H        10.6725007702       12.4662205201        19.894092226338
  H        11.6945828909       10.5513591368        18.652193949938
  H        15.3913237539       11.1680046547        20.762507960538
  H        14.3509830551       13.0709020363        22.007750097038
  H        13.3761264485       11.6311822509        17.191072499638
  H        50.3227434443       22.7485094493        19.976807977138
  H        49.3195993225       24.6229207695        18.670754902038
  H        45.6419819653       24.1609896710        20.853357623538
  H        46.6628605788       22.2901416646        22.161684625138
  H        47.6299699942       23.5759212899        17.235908133838
  H        14.8717698724        8.5881089505        20.598341746338
  H        50.2870943957       22.7027971231       12.0601045800
  H        49.2691193634       24.5756610615       13.3601329923
  H        45.6103308312       24.1089955390       11.1461324964
  H        46.6524108619       22.2537328193        9.8318528546
  H        47.6079533903       23.5518950182       14.7968035647
  H        40.6345688171       17.0581272263       11.4093746801
  H        48.6871353434       14.0949640873        23.789851538738
  H        10.6813117142       12.4670089379       12.0935268085
  H        11.6893861181       10.5250131568       13.2972586959
  H        15.3930350768       11.1581565618       11.2050117746
  H        14.3646651948       13.0866655836        9.9896737946
  H        13.3757276768       11.6221081301       14.7530813573
  H        47.9301149352       14.2186213146        9.7106102484
  H        47.7799876412       14.3737039452        22.485163457538
  H        49.0824527109       18.5517980720       10.8669869277
  H        10.4159183019       14.1343781651        7.9986454682
  H        24.4733921553        3.0309697679        19.898296426538
  H        25.6032364301        4.8938982998        18.666234639438
  H        23.2229918732        7.7534992162        20.824123723438
  H        22.1123777501        5.8809500761        22.058248843838
  H        23.7954290296        5.7908450913        17.238184118738
  H        36.3599905721       32.1930918846        19.972602342338
  H        35.2117033854       30.3769314780        18.705065671338
  H        37.4671850091       27.4382085760        20.890709705638
  H        38.5954115648       29.2674579078        22.168489976638
  H        36.9784385663       29.4583157844        17.286418290338
  H        25.7004976259        8.6148493662        20.631659054838
  H        36.4496207365       32.2419215951       12.1101840174
  H        35.3353640514       30.4288700775       13.4075701523
  H        37.5400283345       27.4868406888       11.1732138279
  H        38.6282796574       29.3114642716        9.8620447799
  H        37.0162070036       29.4759018557       14.8497305442
  H        46.1089538187       26.5873844686       11.3855136977
  H        44.6681738353       35.1161398367        23.803756524938
  H        24.4459652996        3.0432961948       12.0741062659
  H        25.5779351735        4.8866322876       13.3205180627
  H        23.1570287779        7.7683514909       11.2395557603
  H        22.0375132190        5.9132116897        9.9922887796
  H        23.7847396374        5.7923773063       14.7991653317
  H        44.9534945795       34.3901054790        9.6949812287
  H        44.9016955489       34.2067504963        22.480429667838
  H        40.6657245274       33.2085240241       10.8529565225
  H        23.1501375388        1.9575250341        8.0045812665
  H        25.8382237766       19.6499327496        19.840912888738
  H        23.6522032776       19.7251635777        18.644256257038
  H        22.3330163886       16.2705339802        20.841456911038
  H        24.5236776756       16.2098561940        22.039868616738
  H        23.7189894727       17.6886998279        17.231768140938
  H        35.1408607162       15.4390074993        19.981550462238
  H        37.2614970269       15.3815146897        18.670006144138
  H        38.7026158681       18.7840932278        20.873260646738
  H        36.5805085639       18.8174200098        22.194703937838
  H        37.2201562904       17.3292313561        17.229240289838
  H        20.3507450723       18.0211658884        20.650631024838
  H        35.1565651417       15.4240457418       12.0706443117
  H        37.2944339929       15.3384254269       13.3547780609
  H        38.7263980211       18.7630242207       11.1810264262
  H        36.5867784733       18.8254357201        9.8887237400
  H        37.2307439217       17.3138543345       14.7902496241
  H        35.1594361850       26.6785748717       11.4051704431
  H        28.5000438093       21.0754570319        23.858873219238
  H        25.7737492778       19.6103115941       12.1754867610
  H        23.5875670952       19.6749089907       13.3850826094
  H        22.2951011371       16.1894363109       11.2213901347
  H        24.4803886074       16.1492862204       10.0038696695
  H        23.7007222566       17.6586196163       14.7961056874
  H        29.0030292643       21.7188559621        9.7392319573
  H        29.1804358385       21.7125826878        22.536595770638
  H        32.0663826429       18.5701442620       10.9220102938
  H        27.3722942329       19.0130438412        7.9969562175
  H        14.8538590300       19.6610229130       12.1237052712
  H        17.0190658620       19.7136104086       13.3626600517
  H        18.3034024235       16.1918376633       11.2540601134
  H        16.1346709034       16.1558443735       10.0136943101
  H        16.9208064806       17.7229823553       14.8361310205
  H        46.0907131785       15.4235359925       12.0491074778
  H        43.9639467855       15.3466410701       13.3511114689
  H        42.5391576734       18.7916022467       11.2049770221
  H        44.6661741929       18.8428203033        9.8912919603
  H        44.0161352588       17.2857675553       14.8196577816
  H        20.2957767129       17.9256087815       11.4132812407
  H        46.0449045678       15.3793925852        20.028706218138
  H        43.9165131360       15.3073137278        18.730936623938
  H        42.5198744855       18.7842823406        20.842901998538
  H        44.6542347638       18.8415185545        22.143224273438
  H        44.0056648521       17.2749310337        17.258585365838
  H        46.1989339145       26.6824483215        20.613100872438
  H        52.7410613763       21.0626873310        8.1946592564
  H        14.8657486473       19.6837994637        19.891815823038
  H        17.0628067358       19.7730842582        18.706181689038
  H        18.3420118225       16.2549737074        20.823309152238
  H        16.1465858349       16.1896064651        22.018597503038
  H        16.9380116707       17.7461164377        17.273212127338
  H        52.3224193060       21.6733936995        22.284269884238
  H        52.0133503569       21.7021821748        9.4957498305
  H        49.0672471177       18.6076240457        21.193913892238
  H        13.2472702146       19.0169684458        23.966805684738
  H        29.9390561517       12.4754747913       12.2549042735
  H        28.8710066165       10.5401956587       13.4222092575
  H        25.2530286350       11.1954841508       11.1913922066
  H        26.3413320081       13.1157459190       10.0147043507
  H        27.1503122666       11.6802031472       14.7913350586
  H        30.9988645119       22.7678613192       12.0123657753
  H        32.0016479198       24.6481793534       13.3100353017
  H        35.6989511600       24.1353717004       11.1722147222
  H        34.6746846789       22.2638812118        9.8669122588
  H        33.6617182304       23.5802225202       14.7604285641
  H        25.7110525923        8.5984903545       11.3972173606
  H        30.8992178778       22.6647288453        19.893885582938
  H        31.9050320022       24.5433084666        18.600903425338
  H        35.5232429129       24.1778440839        20.900082758938
  H        34.4968454171       22.3114254234        22.202319291138
  H        33.6095378210       23.5701388593        17.196971638738
  H        40.5980153916       17.0724324793        20.640528354038
  H        32.5427875328       14.0796715133        8.3541813931
  H        29.8907361440       12.4810866798        19.908902996838
  H        28.8422296107       10.5893649693        18.663858828338
  H        25.1740786535       11.2113579955        20.820865531238
  H        26.2400316928       13.0970952466        22.070329355938
  H        27.1380490143       11.6923692651        17.229998468838
  H        33.3000065523       14.1652401849        22.429043940538
  H        33.4327095275       14.4030119557        9.6587744388
  H        32.1894053819       18.5266045821        21.135854020938
  H        30.2154679539       14.1376570717        8.0810623380
  H        16.1183898311        2.9630574893       12.1300518331
  H        14.9531009174        4.8200724423       13.3227246592
  H        17.3653347228        7.6857855811       11.2097393376
  H        18.5141334457        5.8182422435       10.0099117533
  H        16.7532636253        5.7394366884       14.7715218437
  H        44.8281291080       32.1401238166       11.9768339849
  H        45.9373813086       30.3412291347       13.3062584244
  H        43.6819842479       27.3780766290       11.1526150918
  H        42.5993275079       29.1899048068        9.8099921457
  H        44.2302729200       29.4366238036       14.7688621863
  H        14.8505424179        8.5458846745       11.3633207408
  H        44.9000966568       32.2339310143        19.921878501938
  H        46.0249226332       30.4128793249        18.642334329338
  H        43.7628932230       27.4839972692        20.834707750238
  H        42.6451307163       29.3176175452        22.113779673838
  H        44.2684334388       29.4704010553        17.207936477738
  H        34.9997399371       26.6352180579        20.635961892738
  H        36.6050886254       35.1339615709        8.1806508488
  H        16.1434570506        3.0128528196        19.893808362238
  H        14.9738468151        4.8562070384        18.678100124038
  H        17.3956889143        7.7471639162        20.745053640038
  H        18.5427480040        5.8931661903        21.972708694038
  H        16.7644297392        5.7554168574        17.209073409538
  H        36.2784496776       34.4823004478        22.263189204638
  H        36.3803525252       34.2092383400        9.4997272510
  H        40.5786100162       33.2011035723        21.144054694938
  H        17.4706773339        1.9471124044        23.963875115138
  H        29.0344556390       19.3141383653       12.3734467048
  H        28.9167904516       18.4618576550        19.680410501138
  H        30.6429257371       15.6204460218        19.692937804738
  H        31.3785142526       15.6696630132       12.5135431289
  H        27.6173790197       17.4908285932       13.7621024608
  H        29.1995968012       15.5307263353       14.2991025313
  H        32.6314591855       17.5906232428        16.773157581638
  H        18.8533503427        0.8690555108       12.3351046750
  H        40.5280241581       35.2292022790        19.942046072738
  H        42.3230478574       34.4182437079        19.580882060238
  H        22.0877862222        0.6916202968       12.3516573476
  H        11.5970054131       18.7128352889       12.3824229789
  H        52.2649274828       18.4308085923        19.667550589138
  H        49.2545778559       16.4769189722        19.574585958538
  H        10.1499752302       15.7982975242       12.2930297210
  H        50.8498233459       17.6925997407        19.943953482538
  H        10.0459101946       17.3945712982       12.0520084620
  H        20.2145608561        0.0021206254       12.0419977851
  H        39.1833914878       36.1241655232        19.676071833338
 Ni        30.3502327760       18.2590979966        17.577303740838
 Ni        30.9026367590       16.6218618128       15.573665080838
 Ni        29.3767470222       18.3838750262       15.406735785238
 Ni        29.8842991572       17.3064033392       12.8305271083
  O        10.6499936369       14.3651551636        21.475660783438
  O        12.6132404292       14.6575974232        22.573693802338
  O        49.1478054794       16.8460159202        23.979579276438
  O        50.3501903121       20.9359325796        21.637948924538
  O        48.3485164804       20.5932384654        22.655765454038
  O        11.0517290613       17.0538393378        22.490408292738
  O        50.3209313742       20.8816507482       10.4068168002
  O        48.3466981761       20.5866750523        9.3270726109
  O        49.5435110711       18.2484089783       10.0682509408
  O        12.3590822572       18.6246104146        7.9996945002
  O        48.6932322458       14.1486025573        22.741093166738
  O         8.2099161072       14.2103773510        9.3225042772
  O        10.7353859546       14.5067785694       10.6643277431
  O        12.5718226699       14.5828739212        9.3284632393
  O        22.8441728330        2.0427133671        21.477142571138
  O        21.6043422247        3.5915722937        22.580280681938
  O        42.0578334340       34.1369412070        23.968795171038
  O        37.9813251959       33.1366626965        21.562252422538
  O        39.2171136608       31.5749835697        22.655391723938
  O        20.3081845639        1.0390746389        22.491649091538
  O        38.0243310084       33.1848671816       10.4156871274
  O        39.2183010080       31.5829603323        9.3275019371
  O        40.6520964389       33.7689940201       10.0601701408
  O        18.2556387350        1.3763271621        7.9968056641
  O        44.6222166026       35.1005244941        22.748553856038
  O        24.2053608935        0.0000245518        9.3208333679
  O        22.7529558285        2.0577444889       10.5835558631
  O        21.6237921002        3.5954665513        9.3415000815
  O        27.5468273206       18.6862637819        21.388729399538
  O        26.7694914508       16.9171151066        22.577905772038
  O        30.6390656996       19.3459929004        23.979071671738
  O        33.5822916057       16.2735007329        21.655139056938
  O        34.2734047932       18.1654668761        22.722490332438
  O        29.6091218162       17.0113975479        22.564201783638
  O        33.5578766074       16.3359233898       10.4084700225
  O        34.2995538023       18.2404026653        9.4048230182
  O        31.6488182636       18.3186504154       10.0804233871
  O        30.3074128038       15.1042469186        8.0842453278
  O        28.5512093764       21.0217939708        22.813035393438
  O        28.5105052602       20.9546373013        9.3945586792
  O        27.4582951063       18.6775755587       10.6478164448
  O        26.6945985000       16.9259874770        9.4048172679
  O        13.1484903973       18.6931702173       10.5870990050
  O        13.9193292398       16.9162203657        9.4048663127
  O        50.5957875984       19.3501420685        8.0206036584
  O        47.6834618149       16.3267550866       10.4169843716
  O        46.9502371738       18.1754280550        9.3256783713
  O        11.0696629559       17.0155913337        9.4895210161
  O        47.6759514519       16.3358017204        21.642847317438
  O        46.9252456825       18.2357057437        22.653005289938
  O        49.5684669948       18.3177044479        21.972138569838
  O        10.3186477065       15.1002353523        7.9970803883
  O        52.6707296088       21.0278784603        9.2418335445
  O        12.1467992696       20.8912276314        22.663086563538
  O        13.1065667202       18.6141996834        21.315613315438
  O        13.9582613510       16.9878010997        22.654180249238
  O        29.9936270682       14.4451418155       10.7302376587
  O        28.0883247558       14.6540943508        9.4944587715
  O        32.1383171789       16.8464606780        8.0713431950
  O        30.9649173233       20.9530294224       10.3957005605
  O        32.9467405731       20.5986942409        9.3305055968
  O        29.5617931340       17.0663916291        9.5552112058
  O        30.8525471868       20.8760170305        21.634443138738
  O        32.8680500380       20.5858131683        22.651317049338
  O        31.6861831293       18.2402830789        21.915051296838
  O        28.2616911151       18.6230857815        7.9977020457
  O        32.5265190788       14.1494372104        9.3996332798
  O        32.4104059697       14.1979954420        22.819216414338
  O        29.9092988703       14.4400100722        21.411688201838
  O        28.0506008879       14.5797541834        22.727352160538
  O        17.8891546933        1.9664982378       10.6628509055
  O        18.9561077239        3.5271324973        9.4080898158
  O        39.1685232063       34.1385753258        7.9971367638
  O        43.2801782494       33.0588804686       10.3316373050
  O        42.0343489038       31.5064659954        9.2415850455
  O        20.3173059369        1.0362295054        9.4804518613
  O        43.2760486490       33.1825017266        21.564697273538
  O        42.0052128318       31.5840822678        22.572797359338
  O        40.5788350148       33.7746731675        21.925540628238
  O        22.3670604936        1.3842754322        7.9979831073
  O        36.6727764436       35.0996974531        9.2333055830
  O        16.4455483550        0.0641785080        22.658091966438
  O        17.9364457728        2.0432891140        21.316134321838
  O        18.9188564697        3.5931087257        22.655692962838
  O        29.8583720129       18.5983348509        19.901110044338
  O        29.8260095194       18.9723420978       11.9077785477
  O        31.1722266460       16.3438757245        20.075599206538
  O        31.3550822163       16.4867069774       11.9764602824
  O        31.8602062697       17.0728736924        17.071387958938
  O        30.0825642209       15.8760333248       14.0760007316
  O        28.4207242210       18.0326873600       13.8194054318
  O        39.4567942189       35.2436675960        19.991734408438
  O        19.1412893627        0.0045438856       11.9905336430
  O        41.9697418129       35.1729885840        20.076985206938
  O        21.6912047825       -0.0696018241       11.8958561400
  O        51.3650195621       18.6142736093        19.995205846638
  O        10.7511832022       18.7471508470       11.9049371920
  O        50.0791715839       16.4127742477        20.081611567538
  O         9.5242342852       16.4831275135       11.9912171033
 Zr         9.2966487152       16.0528342532        22.172211852938
 Zr        49.8363599374       16.0068082845        9.7465220308
 Zr        22.0730568911        0.0290793496        22.179028396038
 Zr        42.4606524038       35.1529026699        9.8007954894
 Zr        29.6173472729       19.0409822568        22.184297186438
 Zr        29.5648597974       19.1840430626        9.7947295091
 Zr        11.0376539988       19.0520770811        9.8277643907
 Zr        11.0434785346       19.1549575813        22.240987402038
 Zr        31.3366927524       16.0987715118        9.8602115651
 Zr        31.4244352629       15.9776106352        22.316629091538
 Zr        18.6007050879       -0.0022203929        9.7635839536
 Zr        18.5062785066       -0.0083528573        22.203242364338
 Zr        12.3020150224       16.3236699631        23.979890529838
 Zr        48.6156722928       18.8329440448        8.0103340873
 Zr        20.3142066537        2.4724216888        23.980452856038
 Zr        40.6425559959       32.6862174708        23.967892593838
 Zr        28.3392754017       16.3231102137        8.0686315320
 Zr        32.6265387731       18.8444577459        8.0424721771
  H        28.8953784182       18.2763363985        16.933784108438
  H        30.6043052579       17.2082288265        19.960318080238
  H        30.4481262973       19.1526840435        16.248030622038
