     567
 i =      100, E =     -4728.3513288235
  C        11.8586571865       14.0535077205        21.731365834038
  C        12.4561472036       12.8905530273        21.013100490938
  C        11.7045541811       12.1718187083        20.071210068938
  C        12.2809319471       11.1096159940        19.378859166938
  C        13.6214186336       10.7396069128        19.606800614938
  C        14.3544558223       11.4429564854        20.580534911838
  C        13.7815693979       12.5079268260        21.272050404138
  C        14.2609738775        9.6489653219        18.833396411638
  C        14.2563430159        9.6569175146        17.411695057838
  C        13.7432379812       10.7590614762        16.657773303438
  C        49.1267544483       21.2332040103        21.869499909438
  C        48.5500412651       22.4011152057        21.142425373238
  C        49.3000698793       23.0683864839        20.161380736038
  C        48.7331564246       24.1075296618        19.428181415338
  C        47.4026365986       24.5092558059        19.656826134538
  C        46.6716933866       23.8604271327        20.670383648938
  C        47.2341170035       22.8155174543        21.399745516138
  C        46.7724277882       25.5869662623        18.859542584238
  C        46.7615067720       25.5573933096        17.437777128238
  C        47.2614444164       24.4423143318        16.694262961238
  C        14.8603101822        8.5705888097        16.698438858838
  C        14.8917153081        8.5969903800        19.510054013838
  C        49.1131801450       21.2034662093       10.1453595797
  C        48.5278455476       22.3648256935       10.8724566294
  C        49.2670892448       23.0255669893       11.8653566071
  C        48.6907575241       24.0601216618       12.5968015443
  C        47.3603401386       24.4569135068       12.3585766198
  C        46.6399381020       23.8120027210       11.3350424553
  C        47.2134761793       22.7760888186       10.6032602105
  C        46.7218952116       25.5318617705       13.1496296985
  C        46.7337132239       25.5282372948       14.5713342938
  C        47.2491725594       24.4290302685       15.3277098962
  C        40.6205853271       17.0823575546       15.3098257163
  C        40.6298084570       17.1042577876       12.5000081427
  C        11.8829516093       14.0864807533       10.2854955138
  C        12.4722365915       12.9106305149       10.9896420606
  C        11.7148304947       12.1776514421       11.9160249204
  C        12.2814161169       11.0951947487       12.5844361636
  C        13.6201356573       10.7212233352       12.3523708088
  C        14.3579416973       11.4365068662       11.3912163350
  C        13.7925271417       12.5176810945       10.7185241718
  C        14.2537773719        9.6245187410       13.1228111263
  C        14.2525415083        9.6445515721       14.5446528997
  C        13.7427116374       10.7535238034       15.2917263133
  C        22.5123227605        3.2438537798        21.743537877338
  C        23.2289029245        4.3482112782        21.045004596138
  C        24.2245663212        4.0662508591        20.098028213238
  C        24.8536543593        5.1046526208        19.416316109738
  C        24.5027274602        6.4469270847        19.661828866838
  C        23.5354822611        6.7203895708        20.646016042638
  C        22.9016325760        5.6837798379        21.326026431038
  C        25.1089349556        7.5527885797        18.885971219038
  C        25.0753179782        7.5482405216        17.464661168238
  C        24.3700773758        6.5504566872        16.719431402138
  C        38.2979729451       31.9278064837        21.841733923738
  C        37.5563981534       30.8393397457        21.140520427238
  C        36.5925117986       31.1466424128        20.167658800338
  C        35.9620132768       30.1289542407        19.456915880438
  C        36.2798365270       28.7773769392        19.695504428438
  C        37.2128665354       28.4776130224        20.706220455338
  C        37.8474885463       29.4942755874        21.416363322138
  C        35.6698205175       27.6892714718        18.896311748138
  C        35.7120328906       27.7031290447        17.474602251238
  C        36.4267384274       28.7027588464        16.741803206638
  C        25.6951249803        8.6196499921        16.744425050538
  C        25.7110256544        8.6248927263        19.556393321138
  C        38.3304262243       31.9603165582       10.1605076018
  C        37.6145132758       30.8869122392       10.9100787942
  C        36.6840134135       31.1958055809       11.9144184031
  C        36.0752488151       30.1784102638       12.6474348554
  C        36.3816339107       28.8247609631       12.4010427841
  C        37.2928372779       28.5258574589       11.3691734120
  C        37.9034692432       29.5397737735       10.6372238363
  C        35.7673624399       27.7260552152       13.1832874955
  C        35.7617146447       27.7221291260       14.6060571485
  C        36.4489155708       28.7129393573       15.3753740233
  C        46.1357030836       26.6208621378       15.2814868038
  C        46.0878300566       26.5801667612       12.4735892432
  C        22.4599543544        3.2559911468       10.2580942592
  C        23.1517051051        4.3654175071       10.9821324290
  C        24.1521072419        4.0807287310       11.9251264948
  C        24.7776336302        5.1117727935       12.6219672429
  C        24.4230895212        6.4573360035       12.3983667367
  C        23.4457322632        6.7352549643       11.4239355264
  C        22.8154598254        5.7044412403       10.7277174838
  C        25.0522694166        7.5562634155       13.1727885183
  C        25.0463841744        7.5496869482       14.5957024661
  C        24.3545179350        6.5521128759       15.3527920926
  C        26.6127080283       17.8573976793        21.773366878938
  C        25.3070406300       17.9061632494        21.049883281738
  C        25.0405221069       18.9119520613        20.107192061538
  C        23.8284624712       18.9297606294        19.419742760138
  C        22.8455434204       17.9471858337        19.655368304638
  C        23.1073452575       16.9647237014        20.629006913538
  C        24.3220417403       16.9399350393        21.312417559438
  C        21.5731870074       17.9327076964        18.889744670638
  C        21.5753209232       17.9143539148        17.467346455438
  C        22.7822755027       17.7941092934        16.708689501238
  C        34.4396725461       17.1925196616        21.911559390538
  C        35.7334581284       17.1427215953        21.167868674038
  C        35.9480304478       16.1585672206        20.190111220238
  C        37.1270340661       16.1445352483        19.450435893538
  C        38.1260462350       17.1127803562        19.669346449438
  C        37.9159421066       18.0772581519        20.673197604038
  C        36.7331550962       18.0970082927        21.409604236938
  C        39.3787232092       17.1169982695        18.879187154438
  C        39.3699647349       17.1134614055        17.457226078838
  C        38.1598864930       17.2212599438        16.702052532038
  C        20.3296166467       17.9318725567        16.757249438438
  C        20.3480616374       17.9333375408        19.570894118638
  C        34.4392140112       17.2373460457       10.1858920192
  C        35.7395045396       17.1405729577       10.9117264314
  C        35.9504623567       16.1508023647       11.8831501701
  C        37.1410327855       16.1179903110       12.6053235748
  C        38.1496007238       17.0743894960       12.3764239261
  C        37.9447059083       18.0383692582       11.3716688859
  C        36.7536369873       18.0756020445       10.6524145879
  C        39.4001208677       17.0868955904       13.1684345604
  C        39.3810134453       17.0986952804       14.5898898244
  C        38.1650740598       17.2129024733       15.3353487462
  C        35.1217296540       26.6454889518       15.3063054602
  C        35.1830442742       26.6536379598       12.4965320458
  C        26.5745005053       17.8268115534       10.3257240630
  C        25.2601368590       17.8726556042       11.0336458506
  C        24.9939767503       18.8810928648       11.9723304889
  C        23.7763669390       18.9066067748       12.6469959246
  C        22.7950275412       17.9244051831       12.4054387072
  C        23.0555398136       16.9407136466       11.4342899301
  C        24.2740915740       16.9125923349       10.7587015054
  C        21.5305564836       17.9070635050       13.1774169350
  C        21.5532570858       17.8992955920       14.5989456839
  C        22.7711278830       17.7865813048       15.3423872378
  C        14.0470572401       17.8290290643       10.2886596978
  C        15.3521171058       17.8865656951       11.0134065424
  C        15.6092851367       18.8901621310       11.9604918467
  C        16.8185886111       18.9112925072       12.6529642519
  C        17.8052574527       17.9317018854       12.4206326273
  C        17.5529428174       16.9524595486       11.4412421607
  C        16.3430504830       16.9267193216       10.7503822572
  C        19.0741631994       17.9146375588       13.1903270424
  C        19.0716804733       17.9116636885       14.6128696346
  C        17.8639520687       17.8125080988       15.3730052559
  C        46.8023389809       17.2162529223       10.1569238966
  C        45.5087077279       17.1462671572       10.8972092403
  C        45.3027400730       16.1617061062       11.8761883073
  C        44.1186584905       16.1341637406       12.6084065797
  C        43.1093143494       17.0909999555       12.3846305299
  C        43.3118223534       18.0543120034       11.3776996920
  C        44.4968482398       18.0857233663       10.6461617015
  C        41.8561981977       17.0948528971       13.1750482110
  C        41.8654522925       17.0965948177       14.5973091819
  C        43.0761671482       17.1962814990       15.3527070462
  C        20.3177741828       17.9233886578       15.3224583426
  C        20.2991873020       17.8949189499       12.5094368005
  C        46.7855191186       17.2326015339        21.876350482438
  C        45.4844475829       17.1292435208        21.156020607038
  C        45.2661771624       16.1292023248        20.196166955438
  C        44.0792968027       16.1020649178        19.467918802338
  C        43.0808005533       17.0723016080        19.681569610438
  C        43.2903915541       18.0436823119        20.678340830938
  C        44.4781167150       18.0767772700        21.402236288638
  C        41.8330877113       17.0902412837        18.886414542238
  C        41.8538403156       17.0928184582        17.465077346838
  C        43.0707956521       17.1914050199        16.719496063438
  C        46.1534879954       26.6372805440        16.716038906438
  C        46.1624249427       26.6560571327        19.525684037538
  C        14.0446275321       17.8310734365        21.698340659438
  C        15.3648557852       17.9041485586        21.006717541338
  C        15.6383045196       18.9199090376        20.078632544838
  C        16.8669280834       18.9565476990        19.423258292138
  C        17.8491687542       17.9765104976        19.670478787838
  C        17.5823934399       16.9892971882        20.636400884038
  C        16.3558209950       16.9521891439        21.295300605538
  C        19.1165532565       17.9520323339        18.902336501538
  C        19.0938625294       17.9299019989        17.480894539438
  C        17.8747782675       17.8205686679        16.739029128738
  C        28.8080893113       14.0926197423       10.3962798736
  C        28.1922909901       12.9208599147       11.0842348921
  C        28.9110782733       12.1816749313       12.0353913235
  C        28.3089104174       11.1078296215       12.6861526728
  C        26.9738136924       10.7491247138       12.4099413497
  C        26.2771499240       11.4686047868       11.4225708460
  C        26.8769362061       12.5427509268       10.7703285706
  C        26.3029027633        9.6699451376       13.1699508183
  C        26.2908730437        9.6964094465       14.5909514362
  C        26.7920420635       10.8103194242       15.3367387488
  C        32.1801064002       21.2368055553       10.1473337576
  C        32.7768662770       22.4003760978       10.8697057915
  C        32.0250907418       23.0868858242       11.8358484727
  C        32.5950130275       24.1268255820       12.5642443582
  C        33.9332490187       24.5096216924       12.3486271446
  C        34.6680869782       23.8417908507       11.3506714417
  C        34.1002348889       22.7964658310       10.6238780966
  C        34.5592403281       25.5858955875       13.1518482001
  C        34.5361496864       25.5611046009       14.5738951555
  C        34.0179706458       24.4486097480       15.3094651150
  C        25.6843181998        8.6170370990       15.3098745442
  C        25.6667717446        8.6189284332       12.4964813362
  C        32.0778482785       21.1960919618        21.864487973638
  C        32.6440693969       22.3620111405        21.123422147738
  C        31.9110140987       23.0074935103        20.115663060838
  C        32.4825610156       24.0495792466        19.387077100238
  C        33.8009695022       24.4755766113        19.645072429338
  C        34.5139791387       23.8441856278        20.682779982238
  C        33.9478768745       22.7994305796        21.407572628238
  C        34.4430007339       25.5600396043        18.864511138138
  C        34.4752389384       25.5483912611        17.442080164038
  C        33.9877597488       24.4430226590        16.675913027038
  C        40.6144284510       17.0852971129        16.744739743038
  C        40.6040439145       17.1217669069        19.555051221338
  C        28.7472014349       14.0696365609        21.804281774738
  C        28.1398925656       12.9205762854        21.068577818138
  C        28.8711632490       12.2333830946        20.087948707238
  C        28.2908943143       11.1754556431        19.392101058738
  C        26.9632189468       10.7790896608        19.650889267738
  C        26.2496168653       11.4540131893        20.658897061038
  C        26.8283760551       12.5119391374        21.356919629738
  C        26.3194299655        9.6894871712        18.878827592438
  C        26.3010696609        9.7062136791        17.457073616238
  C        26.7950174753       10.8164347409        16.702548762738
  C        18.1354132009        3.1808199204       10.3171554247
  C        17.4061492326        4.2781100954       11.0158486140
  C        16.3903130581        3.9997807730       11.9432353814
  C        15.7425745505        5.0397761330       12.6067149332
  C        16.0946037029        6.3834768149       12.3671298109
  C        17.0840997729        6.6529818731       11.4034842572
  C        17.7331986883        5.6156189898       10.7384576785
  C        15.4702553780        7.4911964964       13.1301512538
  C        15.4855514916        7.4905604444       14.5518658523
  C        16.1870865391        6.4969422195       15.3050503147
  C        42.9457920043       31.8595002733       10.0728308413
  C        43.6461416350       30.7718038771       10.8168067603
  C        44.5918433920       31.0931374650       11.8027073792
  C        45.1975603742       30.0876059365       12.5503848428
  C        44.8709738692       28.7345568282       12.3356933186
  C        43.9449567717       28.4201955372       11.3226652081
  C        43.3361317574       29.4253293332       10.5746078406
  C        45.4886415727       27.6552889667       13.1388774769
  C        45.4929297855       27.6809559827       14.5605728673
  C        44.8058895466       28.6890232720       15.3072095067
  C        14.8565676841        8.5630570267       15.2642126154
  C        14.8749641458        8.5629448355       12.4515432326
  C        42.9463915715       31.9615556263        21.798759621938
  C        43.6916363605       30.8854181125        21.085270754438
  C        44.6564419008       31.1913338725        20.113181425538
  C        45.2780005587       30.1717621750        19.395458915238
  C        44.9540432880       28.8214533286        19.632895222738
  C        44.0203100179       28.5237650796        20.643430607038
  C        43.3920098144       29.5405231154        21.355600371538
  C        45.5631479108       27.7240713058        18.847644518738
  C        45.5335021892       27.7174222727        17.426342521838
  C        44.8271948793       28.7076658791        16.673393464638
  C        35.0934179955       26.6375310180        16.741677324438
  C        35.0523439332       26.6178857104        19.552039037138
  C        18.1485637061        3.2468907200        21.696425125138
  C        17.4299856747        4.3437704939        20.987094384238
  C        16.4146376206        4.0525102395        20.063682016938
  C        15.7663205097        5.0831541955        19.388302347338
  C        16.1210912707        6.4283731624        19.610920051938
  C        17.1126194532        6.7117380667        20.568019790338
  C        17.7603063539        5.6828198903        21.247778722238
  C        15.4905916165        7.5240837239        18.838472555638
  C        15.4965244803        7.5074872911        17.417336209838
  C        16.1932840365        6.5057708275        16.670655150438
  H        10.6724891809       12.4660801187        19.894033530638
  H        11.6947016126       10.5512742850        18.652165691638
  H        15.3914095182       11.1681859807        20.762452269138
  H        14.3509562115       13.0709615518        22.007687956938
  H        13.3762292337       11.6311961918        17.191069190338
  H        50.3227610077       22.7483151754        19.976607020838
  H        49.3196404626       24.6227593042        18.670580384438
  H        45.6422218231       24.1612484772        20.853589590638
  H        46.6630807611       22.2903577137        22.161878890638
  H        47.6299400420       23.5759052298        17.235923282438
  H        14.8720212473        8.5881907111        20.598360813238
  H        50.2871338614       22.7027245054       12.0602742407
  H        49.2691451139       24.5755854576       13.3603011464
  H        45.6105300675       24.1092347511       11.1459795936
  H        46.6525982601       22.2539415282        9.8317271624
  H        47.6079122223       23.5518898311       14.7968223465
  H        40.6326366653       17.0728517816       11.4120985474
  H        48.6870950900       14.0949910816        23.789806532138
  H        10.6814299034       12.4668615747       12.0936135021
  H        11.6896956743       10.5249523803       13.2973127974
  H        15.3932790362       11.1584231104       11.2050465237
  H        14.3647777264       13.0868493009        9.9897667415
  H        13.3759149543       11.6221516951       14.7530928891
  H        47.9301211426       14.2185219267        9.7107954677
  H        47.7799570449       14.3736560948        22.485140424338
  H        49.0827593847       18.5519549021       10.8671172820
  H        10.4160280260       14.1343719246        7.9988102286
  H        24.4827543707        3.0271122536        19.906517592138
  H        25.6256480255        4.8860919039        18.681687765438
  H        23.2575334833        7.7539710981        20.841604091138
  H        22.1324049819        5.8852321789        22.067545051738
  H        23.8103700666        5.7931021387        17.260512331338
  H        36.3623959563       32.1908980739        19.969907415438
  H        35.2157107440       30.3723708199        18.703833623038
  H        37.4663876751       27.4372324512        20.899228986838
  H        38.5934925987       29.2688674706        22.174857388738
  H        36.9886919534       29.4520996715        17.291598954438
  H        25.7515680642        8.6047413268        20.643959395338
  H        36.4570295360       32.2399776885       12.1175454847
  H        35.3471322901       30.4256037963       13.4168489035
  H        37.5435496290       27.4857574883       11.1713522722
  H        38.6275827353       29.3118054786        9.8587928019
  H        37.0288433906       29.4697186357       14.8548599048
  H        46.1091158166       26.5875289711       11.3855504275
  H        44.6681995848       35.1161525246        23.803778556238
  H        24.4303363154        3.0428195222       12.0934805154
  H        25.5572006800        4.8838652134       13.3457679210
  H        23.1602943256        7.7694132938       11.2421444892
  H        22.0450682968        5.9162807834        9.9898763508
  H        23.7823371395        5.7965793796       14.8222280016
  H        44.9536699974       34.3903747291        9.6952312163
  H        44.9016772001       34.2067135559        22.480530009338
  H        40.6660481347       33.2088826055       10.8530967803
  H        23.1503329425        1.9577729662        8.0056419084
  H        25.7924927369       19.6774043132        19.929251428638
  H        23.6270461299       19.7148403197        18.694001844438
  H        22.3600395304       16.1970819276        20.819440989938
  H        24.5359240596       16.1669509573        22.046902677138
  H        23.7228949584       17.6764949116        17.239151450338
  H        35.1745140988       15.4138281617        20.019430317738
  H        37.2910509176       15.3739683444        18.700281813838
  H        38.6791616712       18.8330785380        20.846928796038
  H        36.5548064358       18.8561770784        22.167744497338
  H        37.2215380129       17.3434318663        17.235512790838
  H        20.3535008689       17.9711363787        20.658836906838
  H        35.1640306133       15.4230934526       12.0693324583
  H        37.3026524791       15.3469879757       13.3555451228
  H        38.7163373535       18.7834467273       11.1892579039
  H        36.5756436454       18.8374544235        9.8973348885
  H        37.2304417033       17.3282584891       14.7940394242
  H        35.1665579716       26.6772091434       11.4085333740
  H        28.5041703674       21.0777378812        23.876552143038
  H        25.7532986615       19.6386805983       12.1529614927
  H        23.5694691854       19.6930514266       13.3696576064
  H        22.3061484623       16.1755657366       11.2420453462
  H        24.4909725323       16.1416550444       10.0231296931
  H        23.7032786535       17.6633519970       14.7991979504
  H        29.0105105568       21.7204463664        9.7408023004
  H        29.1836906444       21.7195633773        22.550640969038
  H        32.0735060379       18.5402853687       10.9892668850
  H        27.4008736208       19.0675042006        8.0756565504
  H        14.8509177819       19.6492615697       12.1388267165
  H        17.0138923358       19.6958355551       13.3809063229
  H        18.3040023883       16.1880627979       11.2525941816
  H        16.1369372784       16.1572009222       10.0102082719
  H        16.9219741859       17.6969150950       14.8447922232
  H        46.0881065727       15.4316574186       12.0573050144
  H        43.9613042244       15.3633340428       13.3596765679
  H        42.5411013877       18.8013242051       11.1992862363
  H        44.6683714467       18.8444347270        9.8861040591
  H        44.0163599732       17.3090570907       14.8205000533
  H        20.2943129246       17.9239346587       11.4212659509
  H        46.0419439374       15.3868123456        20.023025419338
  H        43.9126834360       15.3248794506        18.725210944438
  H        42.5250819611       18.7977927660        20.849797270838
  H        44.6602568604       18.8451000207        22.149623163038
  H        44.0069895158       17.2994090936        17.259561275538
  H        46.1991668061       26.6825637168        20.613132862738
  H        52.7411432647       21.0626460345        8.1946769077
  H        14.8782602247       19.6743690402        19.887884452238
  H        17.0787049501       19.7472293369        18.706684195138
  H        18.3323913069       16.2262742414        20.834388272838
  H        16.1340506945       16.1774605311        22.025221768338
  H        16.9408982613       17.7112081941        17.282182217438
  H        52.3223945833       21.6732760994        22.284138354638
  H        52.0132803252       21.7021079074        9.4957108317
  H        49.0674609790       18.6079699444        21.193950363638
  H        13.2473948415       19.0163872043        23.967057494438
  H        29.9400485081       12.4626328386       12.2486104063
  H        28.8676796553       10.5329835698       13.4215282191
  H        25.2457499458       11.2014109069       11.2017333735
  H        26.3367932071       13.1193703763       10.0234695574
  H        27.1489450327       11.6815927864       14.7960988820
  H        30.9967684872       22.7803107699       12.0109895144
  H        32.0058868180       24.6573312857       13.3091213550
  H        35.7038933096       24.1266947557       11.1776290709
  H        34.6739008638       22.2567491052        9.8738566560
  H        33.6684971444       23.5781860698       14.7615623963
  H        25.6968400803        8.5994239423       11.4084750463
  H        30.8980302080       22.6707898351        19.906289669938
  H        31.9061723524       24.5495228586        18.611668667338
  H        35.5341415596       24.1603997142        20.890389996538
  H        34.5063170167       22.2916213538        22.190311521938
  H        33.6149889319       23.5679056219        17.200541087938
  H        40.6001660614       17.0956653107        20.643075215138
  H        32.5020235861       14.1463023580        8.2484062515
  H        29.8946555782       12.5429319388        19.889143768838
  H        28.8656990839       10.6381016352        18.640918261338
  H        25.2223373760       11.1609855871        20.865677591238
  H        26.2738806886       13.0489830403        22.122757815538
  H        27.1525587625       11.6926115480        17.235656210138
  H        33.3107804598       14.2404099735        22.461826053838
  H        33.4069465323       14.4120154526        9.5924652596
  H        32.1139982290       18.4441099097        21.135670073538
  H        30.1913794431       14.1552707175        8.0759182419
  H        16.1181563609        2.9632847868       12.1295539504
  H        14.9530338666        4.8204087663       13.3222789555
  H        17.3666431281        7.6858423393       11.2104590330
  H        18.5153176269        5.8182287789       10.0106843484
  H        16.7536226342        5.7395903546       14.7715455519
  H        44.8282348728       32.1402155961       11.9767639072
  H        45.9375543440       30.3413635503       13.3062022290
  H        43.6820924421       27.3781430606       11.1527084765
  H        42.5993752943       29.1899822806        9.8100782250
  H        44.2305244911       29.4367868454       14.7689096375
  H        14.8511770038        8.5461178323       11.3633245396
  H        44.9001151806       32.2340125715        19.921884732138
  H        46.0250479395       30.4130027305        18.642367425738
  H        43.7631313436       27.4840522387        20.834796447438
  H        42.6452890348       29.3177016300        22.113823521038
  H        44.2686985620       29.4705518392        17.207991978938
  H        35.0014946482       26.6316360444        20.639179359838
  H        36.6051566130       35.1338861190        8.1806649526
  H        16.1434684684        3.0129379940        19.894055303438
  H        14.9739033581        4.8563173877        18.678316390638
  H        17.3962612962        7.7471904249        20.744781737238
  H        18.5433198284        5.8932477818        21.972402468638
  H        16.7646820248        5.7555197893        17.209118768738
  H        36.2787050637       34.4821521710        22.263078314938
  H        36.3807302579       34.2090516023        9.4997161726
  H        40.5788310350       33.2014269291        21.143946121338
  H        17.4708451525        1.9468393987        23.963887706238
  H        29.1906476207       19.3604518941       12.5913065000
  H        28.7188933992       18.6863547630        19.752487778138
  H        31.8935824117       15.8665484426        19.541254619338
  H        31.4088554824       15.6305339366       12.4927498938
  H        28.0283781106       17.6651359490       14.3861862132
  H        29.3662445098       15.3324023827       14.3411235650
  H        32.4004389741       17.4913170423        17.212239164038
  H        18.8525616725        0.8687015697       12.3350489557
  H        40.5280245745       35.2289665999        19.941971410538
  H        42.3233597679       34.4184187281        19.580603963038
  H        22.0874045038        0.6918450035       12.3515278841
  H        11.5969684361       18.7129111138       12.3824511766
  H        52.2653027209       18.4308333415        19.667603652738
  H        49.2546812696       16.4771666976        19.574549442538
  H        10.1506730410       15.7981857135       12.2925158926
  H        50.8501465504       17.6926334466        19.943995472538
  H        10.0462331946       17.3945644080       12.0519635417
  H        20.2136714593        0.0018821691       12.0421047196
  H        39.1835582338       36.1242821737        19.676219553438
 Ni        30.5631084690       17.5950908535        18.656380331138
 Ni        30.9427927624       16.3085056817       15.825932651938
 Ni        29.5833826356       18.0718463626        16.159377676538
 Ni        30.0533091007       17.3115714548       13.1563562673
  O        10.6498838791       14.3651430498        21.475611049638
  O        12.6131587990       14.6575149096        22.573676825038
  O        49.1478076890       16.8459454918        23.979579115238
  O        50.3502480308       20.9358177395        21.637932177038
  O        48.3485492418       20.5932714978        22.655767494138
  O        11.0515262585       17.0539063050        22.490484714338
  O        50.3210081213       20.8816485104       10.4068402217
  O        48.3467376306       20.5867127252        9.3271376449
  O        49.5435901806       18.2484071752       10.0683083345
  O        12.3589444991       18.6246165079        7.9997853161
  O        48.6932091947       14.1486132540        22.741085837538
  O         8.2098744365       14.2104303337        9.3225644227
  O        10.7353785197       14.5067736448       10.6643116516
  O        12.5718255185       14.5828360805        9.3285064704
  O        22.8444593991        2.0426747527        21.477127102938
  O        21.6054871384        3.5921241308        22.579461153538
  O        42.0579199885       34.1371658777        23.968769999938
  O        37.9812781798       33.1365648590        21.562199724138
  O        39.2172862136       31.5751135843        22.655610685838
  O        20.3082708568        1.0392572168        22.491833915738
  O        38.0242391506       33.1845481403       10.4158053921
  O        39.2184327552       31.5829644630        9.3273691768
  O        40.6521060772       33.7691251538       10.0601635995
  O        18.2556107463        1.3757721189        7.9967837384
  O        44.6222248733       35.1005100899        22.748572908638
  O        24.2053313467        0.0000320583        9.3208148860
  O        22.7529307780        2.0580413529       10.5839743952
  O        21.6242725133        3.5959644605        9.3423967121
  O        27.4931955637       18.7503349733        21.482887215538
  O        26.7595998081       16.9362659283        22.643475725438
  O        30.6385749656       19.3513144364        8.0555119076
  O        33.5867151988       16.2730385372        21.658305671038
  O        34.2718150330       18.1659407537        22.726919884638
  O        29.5714810073       17.0462215660        22.569269500438
  O        33.5564013533       16.3369316641       10.4113343370
  O        34.2984911864       18.2387725830        9.4050552239
  O        31.6504137437       18.3158840177       10.1434974881
  O        30.2964679812       15.1200207344        8.0843040289
  O        28.5514496054       21.0302906138        22.824923106638
  O        28.5159520208       20.9526501654        9.4071626172
  O        27.4615241626       18.6784168047       10.6606079193
  O        26.6941244181       16.9293391013        9.4134695140
  O        13.1491133498       18.6929179480       10.5875326604
  O        13.9195840487       16.9162248738        9.4051612444
  O        50.5959370715       19.3501961842        8.0206817825
  O        47.6827654975       16.3270770713       10.4172756130
  O        46.9504239370       18.1756238687        9.3254616038
  O        11.0696071582       17.0156355564        9.4896760714
  O        47.6757493771       16.3358555047        21.642708568538
  O        46.9263603391       18.2358906665        22.653779500938
  O        49.5685161811       18.3177405514        21.972157487938
  O        10.3186776009       15.1002262640        7.9971504963
  O        52.6707640926       21.0278901001        9.2418317475
  O        12.1468228018       20.8911822947        22.663044650338
  O        13.1078608123       18.6136951234        21.315477646638
  O        13.9569526877       16.9868918756        22.655369978538
  O        29.9923649683       14.4431431015       10.7343203350
  O        28.0878647153       14.6529373573        9.4981449576
  O        32.0753105724       16.8555683513        8.0702595495
  O        30.9636997426       20.9499764510       10.4090158191
  O        32.9436528528       20.6013539065        9.3355506654
  O        29.5610602249       17.0734015018        9.5756815573
  O        30.8508152672       20.8789002070        21.643665875138
  O        32.8685937419       20.5853426739        22.656286855338
  O        31.6766248706       18.2544137076        21.982494913338
  O        28.2885437179       18.6737329268        8.0693580548
  O        32.4904854872       14.2124182204        9.3270344250
  O        32.4042317618       14.2171884378        22.811911638038
  O        29.9203907584       14.4422124841        21.475373688938
  O        28.0384773483       14.5889274148        22.738413245238
  O        17.8891974357        1.9665122656       10.6628299154
  O        18.9562037821        3.5270725791        9.4079879979
  O        39.1685156337       34.1385241860        7.9971235294
  O        43.2801930636       33.0589031728       10.3316993344
  O        42.0343951859       31.5064510224        9.2416064373
  O        20.3174213819        1.0365386287        9.4803074420
  O        43.2760735848       33.1825390676        21.564686440038
  O        42.0052287199       31.5840877265        22.572781729338
  O        40.5789173956       33.7747586377        21.925597738538
  O        22.3672238197        1.3845515022        7.9979563639
  O        36.6727851876       35.0996443200        9.2333376945
  O        16.4455738544        0.0641317497        22.658052693638
  O        17.9364893849        2.0433318086        21.316134872038
  O        18.9190194725        3.5930995602        22.655724386338
  O        29.6642322136       18.6804613210        19.986274251738
  O        29.8686911521       18.8888551873       12.0718047549
  O        31.3519914090       16.4804123917        20.069035378738
  O        31.3345269279       16.4794903680       12.0141009176
  O        31.7668076415       16.7731672511        17.405268911838
  O        30.2413549671       15.7510231305       14.2399817461
  O        28.8644427703       18.1665348859       14.4106541599
  O        39.4567189831       35.2436662143        19.991782211138
  O        19.1405052444        0.0041213699       11.9906124579
  O        41.9695030732       35.1727462337        20.076934572538
  O        21.6910154102       -0.0695249844       11.8957803928
  O        51.3653807338       18.6142767236        19.995257919138
  O        10.7511589272       18.7471618422       11.9049226899
  O        50.0792508534       16.4128450533        20.081583875638
  O         9.5247110409       16.4830341259       11.9911784782
 Zr         9.2967626121       16.0527796717        22.172154590538
 Zr        49.8362467448       16.0068272973        9.7465384023
 Zr        22.0732124370        0.0296491139        22.178829377338
 Zr        42.4607741003       35.1533836903        9.8009055375
 Zr        29.6007165521       19.0615343126        22.240875293438
 Zr        29.5777672884       19.1748446970        9.8695015456
 Zr        11.0379186583       19.0520780452        9.8277912822
 Zr        11.0436523417       19.1548920623        22.241079374438
 Zr        31.3342116236       16.0988138470        9.8562627996
 Zr        31.3753483569       16.0104599599        22.248205206938
 Zr        18.6009075667       -0.0019766511        9.7633410983
 Zr        18.5064969819       -0.0080792055        22.203293399738
 Zr        12.3018825810       16.3234913023        23.980198777138
 Zr        48.6159955287       18.8330047288        8.0105143087
 Zr        20.3150874264        2.4731826100        23.980290664938
 Zr        40.6429379573       32.6866178006        23.967870948838
 Zr        28.3431031877       16.3307994502        8.0848168289
 Zr        32.6161682517       18.8327042693        8.0531403241
  H        29.3263477384       17.7430892104        17.651354991638
