     567
 i =       73, E =     -4728.3598529366
  C        11.8586786981       14.0534894690        21.731377421938
  C        12.4561636976       12.8905412087        21.013147613338
  C        11.7045910229       12.1718233623        20.071224128438
  C        12.2809919025       11.1096572918        19.378843979138
  C        13.6214765487       10.7396489731        19.606815128038
  C        14.3545005785       11.4429890083        20.580569256138
  C        13.7815894123       12.5079237477        21.272113292538
  C        14.2610669888        9.6490519135        18.833389671838
  C        14.2563932413        9.6569989308        17.411691777838
  C        13.7432748720       10.7591371194        16.657772911638
  C        49.1267892392       21.2332283902        21.869541516038
  C        48.5501090710       22.4011559696        21.142496607438
  C        49.3000904837       23.0683347921        20.161353030338
  C        48.7331720155       24.1074655423        19.428141896838
  C        47.4026805625       24.5092620816        19.656860530338
  C        46.6717829189       23.8605148323        20.670511132338
  C        47.2342168767       22.8156223744        21.399883398138
  C        46.7724308138       25.5869330101        18.859556214738
  C        46.7615420181       25.5573691347        17.437784000338
  C        47.2614824186       24.4422861328        16.694269871938
  C        14.8603977117        8.5706978592        16.698428590838
  C        14.8918123051        8.5970727456        19.510035954638
  C        49.1132101819       21.2034787331       10.1453454697
  C        48.5279294010       22.3648720687       10.8724036969
  C        49.2671411485       23.0255010468       11.8654075893
  C        48.6908466961       24.0600752929       12.5968505891
  C        47.3604618502       24.4569477756       12.3585853396
  C        46.6400927794       23.8121599040       11.3349525194
  C        47.2135935957       22.7762283288       10.6031742491
  C        46.7220388106       25.5318995432       13.1496344503
  C        46.7338109950       25.5282351656       14.5713325356
  C        47.2492142145       24.4290118131       15.3277160630
  C        40.6208181366       17.0813371601       15.3089919505
  C        40.6304656817       17.0989583729       12.4992372896
  C        11.8829753110       14.0865054277       10.2855102307
  C        12.4722349456       12.9106633383       10.9896349352
  C        11.7148544964       12.1777254941       11.9160773855
  C        12.2814337571       11.0952737468       12.5844901725
  C        13.6201170431       10.7212280993       12.3523411577
  C        14.3578977588       11.4364631125       11.3911330828
  C        13.7924890504       12.5176333914       10.7184419549
  C        14.2537955699        9.6245838692       13.1228108795
  C        14.2525456401        9.6446232842       14.5446491715
  C        13.7427214265       10.7535937522       15.2917272175
  C        22.5115039048        3.2440466642        21.743149482438
  C        23.2255820271        4.3494226574        21.043801279538
  C        24.2202237556        4.0697268835        20.095137708538
  C        24.8462254584        5.1097515713        19.412999263438
  C        24.4931186886        6.4512175115        19.659841467238
  C        23.5269996092        6.7224005663        20.645720133138
  C        22.8962155162        5.6842545126        21.326059320738
  C        25.0963958005        7.5588066753        18.884328786838
  C        25.0622923504        7.5551661172        17.463050391938
  C        24.3590409423        6.5564753215        16.717189832738
  C        38.3021392047       31.9300199294        21.839452466038
  C        37.5713452960       30.8408450073        21.131110532838
  C        36.6115540581       31.1449871380        20.153662617338
  C        35.9934304231       30.1247865693        19.436170526238
  C        36.3204816462       28.7755666413        19.674615293138
  C        37.2503382721       28.4789193659        20.688832091738
  C        37.8726004454       29.4978199122        21.405179203738
  C        35.7176795746       27.6841751539        18.877502135838
  C        35.7487425926       27.6993924395        17.456185133838
  C        36.4553808706       28.7013723161        16.719120529438
  C        25.6807014807        8.6277723240        16.743503666538
  C        25.6975402345        8.6310359096        19.555340029638
  C        38.3287970950       31.9617738965       10.1567306001
  C        37.6076644105       30.8886153786       10.8993250905
  C        36.6786772368       31.1974141641       11.9047823492
  C        36.0686132318       30.1791009659       12.6346911576
  C        36.3730166166       28.8262699947       12.3829031699
  C        37.2798332346       28.5274716199       11.3475096605
  C        37.8920703408       29.5422650449       10.6188665961
  C        35.7641189173       27.7274485602       13.1670809519
  C        35.7722877834       27.7216999075       14.5892082952
  C        36.4661615717       28.7124030350       15.3525925052
  C        46.1357683433       26.6208402568       15.2814808196
  C        46.0880266849       26.5802393163       12.4736090461
  C        22.4599515514        3.2562718121       10.2581045368
  C        23.1514409403        4.3663344671       10.9815998971
  C        24.1515615267        4.0829122925       11.9252764546
  C        24.7762933719        5.1148945654       12.6215744372
  C        24.4213283297        6.4601393358       12.3966909173
  C        23.4444436868        6.7367607117       11.4214315330
  C        22.8148832377        5.7050589822       10.7258630007
  C        25.0485007222        7.5602012745       13.1713700369
  C        25.0381199068        7.5554431598       14.5942569708
  C        24.3456481732        6.5576527519       15.3505067094
  C        26.6176882806       17.8602505256        21.772392016638
  C        25.3112690286       17.9067274863        21.047984694938
  C        25.0439671527       18.9119616374        20.105018192338
  C        23.8311091541       18.9302677038        19.418832367238
  C        22.8478638617       17.9482652706        19.655624227238
  C        23.1106624899       16.9657973692        20.628904692138
  C        24.3261568286       16.9409185697        21.311255839738
  C        21.5746890856       17.9343006706        18.891002439538
  C        21.5761478663       17.9152181116        17.468636171538
  C        22.7828684643       17.7934071972        16.709967992438
  C        34.4398399293       17.1914799759        21.911053019638
  C        35.7333033953       17.1412993195        21.166763363038
  C        35.9478747561       16.1580594947        20.188071148838
  C        37.1268913182       16.1448565742        19.448350268938
  C        38.1259160173       17.1129476472        19.668130674738
  C        37.9157030179       18.0765434283        20.672874030638
  C        36.7329491619       18.0955911276        21.409216817338
  C        39.3786443963       17.1180758149        18.878105461938
  C        39.3699778895       17.1139148333        17.456146622338
  C        38.1599905874       17.2204636427        16.700710027238
  C        20.3303484118       17.9333751580        16.758704133138
  C        20.3496166923       17.9358733159        19.572317287938
  C        34.4397251552       17.2365378360       10.1873326104
  C        35.7403930504       17.1363744609       10.9110075682
  C        35.9488493112       16.1486064464       11.8850752638
  C        37.1396725105       16.1146053046       12.6067560883
  C        38.1505661545       17.0678849256       12.3749598765
  C        37.9482094102       18.0291778637       11.3670222234
  C        36.7571301260       18.0676145409       10.6481192553
  C        39.4006442027       17.0813587043       13.1674280922
  C        39.3813197576       17.0954546500       14.5888740241
  C        38.1653381915       17.2102922275       15.3340558355
  C        35.1401069426       26.6433958639       15.2932651454
  C        35.1744938441       26.6563973465       12.4839336772
  C        26.5738587895       17.8259048522       10.3252337011
  C        25.2608404922       17.8682083040       11.0360628662
  C        24.9947825260       18.8762277586       11.9754619403
  C        23.7771233807       18.9014555005       12.6500882213
  C        22.7955973054       17.9195858150       12.4077247851
  C        23.0566793198       16.9356117276       11.4370143347
  C        24.2753120673       16.9075480684       10.7615194140
  C        21.5306957208       17.9035440148       13.1789090636
  C        21.5535656833       17.8975764266       14.6003739980
  C        22.7714127947       17.7844363912       15.3437626207
  C        14.0471224090       17.8288628191       10.2889454168
  C        15.3521342917       17.8860507311       11.0140984298
  C        15.6098021198       18.8899854757       11.9607184720
  C        16.8190531488       18.9109236363       12.6533761121
  C        17.8053319403       17.9306920054       12.4219079979
  C        17.5524641605       16.9509747521       11.4430905156
  C        16.3426818298       16.9255434355       10.7519384726
  C        19.0743092947       17.9134598701       13.1917222829
  C        19.0720369798       17.9123616682       14.6143520830
  C        17.8643607494       17.8152505964       15.3748272253
  C        46.8025080969       17.2161189841       10.1568046636
  C        45.5089597246       17.1456743390       10.8970735224
  C        45.3039122649       16.1614123415       11.8765321732
  C        44.1198839534       16.1332591671       12.6087544022
  C        43.1098240605       17.0891030397       12.3842855102
  C        43.3114136415       18.0521242294       11.3769309820
  C        44.4964538215       18.0842371838       10.6454829381
  C        41.8566603642       17.0922087549       13.1744651340
  C        41.8657429075       17.0959245961       14.5966751612
  C        43.0762748408       17.1978501972       15.3520102953
  C        20.3182063855       17.9236711280       15.3239096454
  C        20.2993687135       17.8916648766       12.5108182857
  C        46.7855407011       17.2328359853        21.876132794438
  C        45.4845293330       17.1301826192        21.155412668538
  C        45.2660495356       16.1307624032        20.194971068838
  C        44.0791825580       16.1043357323        19.466638375838
  C        43.0808582240       17.0746757153        19.680764712638
  C        43.2906911368       18.0455130297        20.678013008538
  C        44.4784101910       18.0778682786        21.401992882638
  C        41.8330628693       17.0928314583        18.885653250338
  C        41.8538580977       17.0950974866        17.464301092038
  C        43.0707961562       17.1943328570        16.718802384438
  C        46.1535046070       26.6372374997        16.716031170538
  C        46.1624641376       26.6560571798        19.525698630838
  C        14.0448479167       17.8314034009        21.698496526038
  C        15.3654522573       17.9053318402        21.007506951538
  C        15.6391340239       18.9218472898        20.080295301538
  C        16.8680715779       18.9592799737        19.425477606938
  C        17.8504767109       17.9792839189        19.672312749238
  C        17.5835189595       16.9914109653        20.637538150338
  C        16.3566466646       16.9535374056        21.295899452838
  C        19.1178764350       17.9549513707        18.904009785838
  C        19.0947526832       17.9327020557        17.482547802838
  C        17.8754733522       17.8242029491        16.740840376138
  C        28.8079732363       14.0943664537       10.3964726762
  C        28.1928073172       12.9227187398       11.0844969720
  C        28.9063308375       12.1913668851       12.0456167856
  C        28.3027312844       11.1181764289       12.6961691488
  C        26.9713462178       10.7528201777       12.4104693605
  C        26.2803999657       11.4646614049       11.4134949778
  C        26.8816162765       12.5377223171       10.7610663630
  C        26.2977830829        9.6749264843       13.1698336634
  C        26.2794078271        9.7041103119       14.5907626880
  C        26.7748398492       10.8204045613       15.3369029928
  C        32.1789978945       21.2371905786       10.1481754772
  C        32.7729386397       22.4036741383       10.8663773452
  C        32.0228329275       23.0863033050       11.8364036023
  C        32.5931736059       24.1262358374       12.5641911182
  C        33.9293493132       24.5119548485       12.3427491768
  C        34.6618489250       23.8487335799       11.3401790304
  C        34.0939581447       22.8032614367       10.6144302887
  C        34.5578629583       25.5876059863       13.1434417211
  C        34.5474963320       25.5601283070       14.5652398079
  C        34.0355918328       24.4465651162       15.3035288319
  C        25.6725341453        8.6244815032       15.3090120087
  C        25.6650927151        8.6220418407       12.4957212268
  C        32.1040186332       21.2244017449        21.874812942738
  C        32.6919081635       22.3795908278        21.134608979238
  C        31.9567311834       23.0351912530        20.134933276938
  C        32.5353019313       24.0657332481        19.397585472238
  C        33.8627148108       24.4698792679        19.640762089738
  C        34.5800576063       23.8279104717        20.668639444338
  C        34.0062980600       22.7925468878        21.401983299838
  C        34.5024509739       25.5503921118        18.854790604138
  C        34.5183006505       25.5413871496        17.432574292038
  C        34.0207739619       24.4379863973        16.670219008838
  C        40.6145288842       17.0860601968        16.743857816138
  C        40.6039233071       17.1238400211        19.554168743838
  C        28.7428423469       14.0675756129        21.808906330738
  C        28.1319992501       12.9208797576        21.072552391138
  C        28.8598415944       12.2368575254        20.087145342338
  C        28.2768006161       11.1817388338        19.389377915738
  C        26.9497859141       10.7849976062        19.651138691538
  C        26.2396725456       11.4568744432        20.663682982738
  C        26.8211033754       12.5121908976        21.363547475338
  C        26.3041176150        9.6970436023        18.878386641238
  C        26.2844407878        9.7151297798        17.456711438138
  C        26.7754439734       10.8270130242        16.702719189738
  C        18.1354507406        3.1809150990       10.3172074755
  C        17.4061598345        4.2782157647       11.0158685461
  C        16.3902812463        3.9998788224       11.9432018145
  C        15.7425659659        5.0398770012       12.6066988360
  C        16.0946304378        6.3835640180       12.3671311673
  C        17.0842040689        6.6530740229       11.4035747377
  C        17.7332818957        5.6157143076       10.7385258332
  C        15.4703096876        7.4912916721       13.1301512816
  C        15.4855992927        7.4906590073       14.5518613966
  C        16.1871761958        6.4970590598       15.3050303907
  C        42.9458860126       31.8595442586       10.0728796952
  C        43.6463156827       30.7718705690       10.8168525466
  C        44.5919520151       31.0932077257       11.8028116510
  C        45.1976979249       30.0876689840       12.5504638962
  C        44.8711678558       28.7346201199       12.3357207606
  C        43.9451338470       28.4202655491       11.3227163613
  C        43.3362731937       29.4253993340       10.5746939066
  C        45.4887886637       27.6553259353       13.1388939294
  C        45.4930201101       27.6809535902       14.5605816386
  C        44.8059202156       28.6889837634       15.3072054523
  C        14.8566303721        8.5631630246       15.2642062685
  C        14.8749663347        8.5630030020       12.4515454654
  C        42.9464540060       31.9615639026        21.798811270138
  C        43.6916532556       30.8854202663        21.085232292138
  C        44.6564515333       31.1913255982        20.113143537738
  C        45.2779991847       30.1717415196        19.395417431038
  C        44.9540140461       28.8214394619        19.632858537338
  C        44.0202482479       28.5237594242        20.643369261038
  C        43.3919771874       29.5405387229        21.355534294838
  C        45.5631399401       27.7240386102        18.847638427138
  C        45.5334920798       27.7173654340        17.426333110838
  C        44.8271741742       28.7076080536        16.673388270638
  C        35.1267201905       26.6328427058        16.728180755638
  C        35.1134091366       26.6087516905        19.538060187638
  C        18.1485893941        3.2469662515        21.696394887338
  C        17.4300385495        4.3438622313        20.987047917538
  C        16.4146321365        4.0526208696        20.063701372438
  C        15.7663324795        5.0832720893        19.388315993738
  C        16.1212040451        6.4284674049        19.610888607138
  C        17.1128585985        6.7118301162        20.567854348938
  C        17.7605196124        5.6828927852        21.247607207538
  C        15.4907184687        7.5241901788        18.838450236538
  C        15.4966145042        7.5075939232        17.417317010338
  C        16.1933850243        6.5058861985        16.670634270538
  H        10.6725297524       12.4660819719        19.894025428938
  H        11.6947786878       10.5513049384        18.652145100338
  H        15.3914474705       11.1682038253        20.762509284238
  H        14.3509679293       13.0709512484        22.007763150638
  H        13.3762565742       11.6312675148        17.191066456438
  H        50.3227558268       22.7482221942        19.976515166338
  H        49.3196243199       24.6226507333        18.670482396638
  H        45.6423448539       24.1614194884        20.853789238838
  H        46.6632132733       22.2905463101        22.162093794438
  H        47.6299555725       23.5758614692        17.235928434338
  H        14.8721398077        8.5882636672        20.598343394038
  H        50.2871583674       22.7025974990       12.0603675899
  H        49.2692242155       24.5754639930       13.3604050217
  H        45.6107248148       24.1094776949       11.1458303000
  H        46.6527371317       22.2541673206        9.8315696100
  H        47.6079889532       23.5518869651       14.7968363893
  H        40.6336568949       17.0658942173       11.4113862542
  H        48.6870983125       14.0949846513        23.789822539238
  H        10.6814669859       12.4669636559       12.0936915666
  H        11.6897205009       10.5250462101       13.2973823803
  H        15.3931955597       11.1582890750       11.2048821861
  H        14.3647134095       13.0867268371        9.9896052927
  H        13.3759014456       11.6222152619       14.7531025773
  H        47.9301470577       14.2184557619        9.7107842274
  H        47.7799339207       14.3735330290        22.485123486838
  H        49.0828835142       18.5520150963       10.8671198018
  H        10.4160618430       14.1343564574        7.9987720239
  H        24.4800888532        3.0311715715        19.902688626338
  H        25.6175118654        4.8931114636        18.677063464738
  H        23.2475094298        7.7553688740        20.842315317438
  H        22.1277935827        5.8837940363        22.068905588238
  H        23.7996456746        5.7985097721        17.257743680638
  H        36.3751039029       32.1882774522        19.958363459838
  H        35.2488587485       30.3636887497        18.679990574438
  H        37.5100004640       27.4397190579        20.879818735938
  H        38.6163495957       29.2770188983        22.167111002938
  H        37.0208411873       29.4507595893        17.265293185438
  H        25.7394667351        8.6095359197        20.642819916438
  H        36.4554645092       32.2416404017       12.1116415933
  H        35.3427065899       30.4243525413       13.4067867255
  H        37.5269395448       27.4872206296       11.1461238628
  H        38.6145445711       29.3161975679        9.8384300850
  H        37.0409830408       29.4697936719       14.8274611265
  H        46.1093514236       26.5876462366       11.3855772631
  H        44.6682499577       35.1161873444        23.803699957738
  H        24.4302003045        3.0452814516       12.0947181467
  H        25.5554440245        4.8879129518       13.3461292324
  H        23.1587049315        7.7706527759       11.2385872669
  H        22.0447995569        5.9159995645        9.9874492019
  H        23.7754472008        5.8011327089       14.8192087253
  H        44.9537467751       34.3904175032        9.6952815573
  H        44.9016061096       34.2067045839        22.480487894638
  H        40.6657550652       33.2089111080       10.8530509284
  H        23.1503359038        1.9580033817        8.0054725346
  H        25.7961320612       19.6769491735        19.926114248538
  H        23.6293423900       19.7154012270        18.693229975138
  H        22.3634415998       16.1983010883        20.820299588938
  H        24.5402926178       16.1681287815        22.045866985038
  H        23.7233687511       17.6752529817        17.240462712738
  H        35.1749006586       15.4130184595        20.016259583538
  H        37.2906751047       15.3750106239        18.697408816038
  H        38.6788215232       18.8323153635        20.847270714538
  H        36.5545300245       18.8541660360        22.167931311438
  H        37.2213743605       17.3426569284        17.233651609038
  H        20.3552842289       17.9737515431        20.660260302838
  H        35.1601792911       15.4241254319       12.0744712490
  H        37.2992138668       15.3454174220       13.3592707614
  H        38.7217120670       18.7717276740       11.1823073749
  H        36.5810058447       18.8278834767        9.8910239435
  H        37.2306173137       17.3245279235       14.7926995468
  H        35.1484805518       26.6814012445       11.3961715452
  H        28.5032853568       21.0843112062        23.882321325338
  H        25.7530550435       19.6353434256       12.1547702578
  H        23.5699706234       19.6879938914       13.3725704478
  H        22.3072989957       16.1704932983       11.2445670796
  H        24.4923402098       16.1369162579       10.0256426122
  H        23.7033871240       17.6593303350       14.8007756442
  H        29.0090580313       21.7219253474        9.7412419073
  H        29.1817372318       21.7265885392        22.552533152738
  H        32.0676779276       18.5439762391       11.0000450655
  H        27.4093779998       19.0776642272        8.0838088870
  H        14.8518872568       19.6496679061       12.1385187689
  H        17.0145863109       19.6959318259       13.3807544516
  H        18.3030198614       16.1859449184       11.2549965133
  H        16.1364000891       16.1556994318       10.0121433849
  H        16.9221481734       17.7002384022       14.8469161350
  H        46.0899441065       15.4321644964       12.0579741706
  H        43.9631139677       15.3627708461       13.3604958329
  H        42.5400108951       18.7983385403       11.1981579704
  H        44.6674790215       18.8427081259        9.8850729512
  H        44.0163742142       17.3110660273       14.8197336182
  H        20.2945230192       17.9192833642       11.4226084613
  H        46.0415948928       15.3882188798        20.021470878538
  H        43.9124214030       15.3275792089        18.723508177538
  H        42.5256093022       18.7997726843        20.849871059538
  H        44.6606966597       18.8457474020        22.149799246038
  H        44.0067933507       17.3037470557        17.258935015238
  H        46.1992107469       26.6825944181        20.613154100638
  H        52.7411301858       21.0626472987        8.1946738024
  H        14.8789997914       19.6762631517        19.889723452638
  H        17.0798944205       19.7505665954        18.709582237638
  H        18.3335987247       16.2284152539        20.835334412638
  H        16.1348457085       16.1782562096        22.025229196838
  H        16.9415444076       17.7161216626        17.284155368138
  H        52.3223724752       21.6732612565        22.284145192238
  H        52.0133132834       21.7021102396        9.4957389216
  H        49.0675614177       18.6080267519        21.193928182338
  H        13.2473910062       19.0164184831        23.967163064038
  H        29.9315610763       12.4786328029       12.2680854773
  H        28.8576093034       10.5493846701       13.4391327669
  H        25.2519889936       11.1923861092       11.1850670279
  H        26.3456276918       13.1084269003       10.0067272626
  H        27.1300405617       11.6926126714       14.7966203509
  H        30.9962640611       22.7762448812       12.0155252158
  H        32.0064516104       24.6540355241       13.3128670721
  H        35.6959300997       24.1374320873       11.1633095626
  H        34.6653347238       22.2658580856        9.8610699092
  H        33.6784188543       23.5782321088       14.7572941642
  H        25.6996402619        8.6004900992       11.4078779673
  H        30.9360868853       22.7136941011        19.940382298638
  H        31.9585912365       24.5747657914        18.628382324738
  H        35.6075605396       24.1288867989        20.862341307638
  H        34.5658747473       22.2746660600        22.177494656838
  H        33.6520642204       23.5628916799        17.197769232838
  H        40.5999904521       17.0977909432        20.642203611038
  H        32.5031672704       14.1449333767        8.2583356041
  H        29.8826696448       12.5472893467        19.885999713038
  H        28.8489571119       10.6469643746        18.634349479938
  H        25.2129496973       11.1635275282        20.872761984438
  H        26.2691109890       13.0470971118        22.132711455438
  H        27.1297019672       11.7043111610        17.236152824138
  H        33.3093040414       14.2334348646        22.457443332438
  H        33.4068546877       14.4122848634        9.5966472023
  H        32.1538162660       18.5042660634        21.175701778938
  H        30.1886595645       14.1585634635        8.0821673321
  H        16.1181185184        2.9633773492       12.1294841235
  H        14.9529766525        4.8205169264       13.3222098145
  H        17.3667781639        7.6859328317       11.2105885096
  H        18.5154626994        5.8183026231       10.0108120042
  H        16.7536897586        5.7396951386       14.7715182897
  H        44.8283402791       32.1402904390       11.9768598973
  H        45.9376869357       30.3414265632       13.3062835349
  H        43.6822786404       27.3782159390       11.1527480838
  H        42.5995136145       29.1900679654        9.8101651905
  H        44.2305734181       29.4367463963       14.7688923592
  H        14.8511827138        8.5461656387       11.3633277746
  H        44.9001330276       32.2340023413        19.921840747538
  H        46.0250753743       30.4129603784        18.642340791438
  H        43.7630729677       27.4840430150        20.834738095638
  H        42.6452489805       29.3177553109        22.113757255638
  H        44.2686505473       29.4704755349        17.207992179638
  H        35.0712724479       26.6213695361        20.625538814138
  H        36.6051209674       35.1340126248        8.1806525808
  H        16.1433867023        3.0130553072        19.894159604138
  H        14.9738331472        4.8564591044        18.678414722638
  H        17.3965801245        7.7472736397        20.744543706038
  H        18.5436120355        5.8932873112        21.972155169138
  H        16.7647777299        5.7556385104        17.209108020938
  H        36.2786004150       34.4824458176        22.263056383638
  H        36.3808315622       34.2091683331        9.4997430007
  H        40.5800108347       33.2023527943        21.143546282038
  H        17.4706860004        1.9471978883        23.963954713338
  H        29.1440496501       19.3243832987       12.5662823410
  H        28.8084357521       18.8730079010        19.780877115238
  H        31.9754694149       15.8021448230        19.555563871538
  H        31.3931560625       15.6331605574       12.5533000802
  H        27.7776671510       17.7125484428       14.0212669209
  H        29.2788339565       15.3467565368       14.4104071196
  H        32.5175203279       17.4509931683        17.166667368438
  H        18.8536481244        0.8689193234       12.3353410621
  H        40.5279010816       35.2289650968        19.941861602438
  H        42.3238995494       34.4187278554        19.580306562638
  H        22.0877139086        0.6920096442       12.3515343197
  H        11.5972072247       18.7128396426       12.3823905165
  H        52.2647627014       18.4310204151        19.667147453938
  H        49.2546445749       16.4769557170        19.574539169138
  H        10.1505602432       15.7981580962       12.2925840391
  H        50.8498477641       17.6924994517        19.944008518938
  H        10.0462738502       17.3945212088       12.0519671896
  H        20.2149510072        0.0021577416       12.0419394865
  H        39.1836352842       36.1243570276        19.676123855638
 Ni        30.6035492391       17.5827901661        18.819735041238
 Ni        30.8617045162       16.3535957814       15.906815552638
 Ni        29.1667158044       17.8153857861        16.076906623538
 Ni        29.9748351388       17.2989717939       13.1566951834
  O        10.6499024552       14.3651480957        21.475641149138
  O        12.6131549722       14.6575419333        22.573694339238
  O        49.1478018832       16.8459561828        23.979603866438
  O        50.3502564369       20.9357612986        21.637907481538
  O        48.3485457755       20.5932574516        22.655758483038
  O        11.0515623153       17.0538976315        22.490492681338
  O        50.3210326647       20.8816194235       10.4068216982
  O        48.3467547326       20.5867077469        9.3271306969
  O        49.5436291716       18.2484040565       10.0682930312
  O        12.3589728233       18.6245763348        7.9997792969
  O        48.6932086364       14.1486212491        22.741088916838
  O         8.2098862781       14.2104235568        9.3225281503
  O        10.7353703230       14.5067732357       10.6643008528
  O        12.5718221362       14.5828626932        9.3284921185
  O        22.8444688393        2.0430212003        21.477039133838
  O        21.6051888886        3.5920056433        22.579778369138
  O        42.0582072516       34.1373910109        23.968816352938
  O        37.9817717788       33.1384083881        21.562503839738
  O        39.2181436810       31.5763701289        22.656465880438
  O        20.3084000551        1.0395027764        22.491843453138
  O        38.0246245901       33.1856754233       10.4151969620
  O        39.2190466311       31.5836331608        9.3265853480
  O        40.6522850215       33.7693267862       10.0602353178
  O        18.2554256758        1.3761031811        7.9968263789
  O        44.6222429810       35.1005314614        22.748528096538
  O        24.2053829229        0.0000354984        9.3208182769
  O        22.7529819083        2.0583423271       10.5840767735
  O        21.6242487164        3.5959694275        9.3423223112
  O        27.4965559232       18.7521382128        21.483599694838
  O        26.7616688294       16.9376115324        22.643862082138
  O        30.6639893537       19.4046095254        8.0659428854
  O        33.5854197185       16.2728164916        21.657672439838
  O        34.2729792333       18.1648179979        22.726257713738
  O        29.5739610485       17.0570806583        22.569434649438
  O        33.5551087107       16.3376372008       10.4133506378
  O        34.2997484013       18.2383348904        9.4067990627
  O        31.6498873956       18.3150265502       10.1525713485
  O        30.2985400424       15.1229596780        8.0886681051
  O        28.5519959457       21.0345189750        22.828133634738
  O        28.5151744188       20.9538187825        9.4071681519
  O        27.4590188539       18.6792170687       10.6594874716
  O        26.6944444894       16.9290986437        9.4127118162
  O        13.1492215787       18.6928843258       10.5876045895
  O        13.9196778448       16.9162487109        9.4052334295
  O        50.5959493598       19.3501737708        8.0206354879
  O        47.6829326116       16.3270035870       10.4172268956
  O        46.9504569353       18.1755982490        9.3254801353
  O        11.0696868013       17.0155986497        9.4896944912
  O        47.6756113634       16.3359070329        21.642623066138
  O        46.9263856095       18.2359351827        22.653785538038
  O        49.5685282977       18.3176917725        21.972160138038
  O        10.3187139505       15.1002151987        7.9971251939
  O        52.6707742422       21.0278796745        9.2418335478
  O        12.1468080848       20.8911720521        22.663046012638
  O        13.1078839911       18.6137099208        21.315466682638
  O        13.9570579469       16.9869703193        22.655305822138
  O        29.9928991860       14.4454482545       10.7353887512
  O        28.0884411952       14.6539244041        9.4979501618
  O        32.0738114992       16.8572936292        8.0797402516
  O        30.9630898115       20.9485160748       10.4121243015
  O        32.9447681841       20.6013077006        9.3392812711
  O        29.5639621184       17.0745925645        9.5756547568
  O        30.8745158246       20.9391346322        21.651466318038
  O        32.8793211377       20.5833137244        22.658540950938
  O        31.6792728639       18.2526267468        21.984092804038
  O        28.2939902647       18.6772286454        8.0737405594
  O        32.4902349249       14.2137093248        9.3310798552
  O        32.4053236051       14.2140188026        22.814257200838
  O        29.9158903987       14.4377365873        21.480869325838
  O        28.0352464908       14.5911332976        22.741685807438
  O        17.8891923624        1.9666172506       10.6628447834
  O        18.9561667728        3.5271612283        9.4079871601
  O        39.1686495775       34.1388195735        7.9972244615
  O        43.2802349241       33.0589573574       10.3317249825
  O        42.0345613132       31.5064248140        9.2416307023
  O        20.3176348209        1.0366818493        9.4802902140
  O        43.2760940134       33.1825339500        21.564672238138
  O        42.0052693854       31.5840820957        22.572766389338
  O        40.5790363846       33.7749448854        21.925715829338
  O        22.3673346035        1.3846370924        7.9979944152
  O        36.6727522362       35.0997705205        9.2333148089
  O        16.4455242293        0.0643223695        22.658127835638
  O        17.9364655716        2.0434073703        21.316145384238
  O        18.9189885458        3.5931732233        22.655719371538
  O        29.7382501583       18.8308763139        20.071110220938
  O        29.8250604259       18.8433492055       12.0579200121
  O        31.3466570953       16.3334336966        20.076352904838
  O        31.3344549997       16.4820422540       12.0727932256
  O        31.8554404502       16.7806553084        17.412971865738
  O        30.1595984173       15.7499731077       14.3024518286
  O        28.6376548850       18.0996271679       14.2673101292
  O        39.4567263309       35.2437516087        19.991747799938
  O        19.1415546441        0.0044897390       11.9905335761
  O        41.9695172164       35.1725935562        20.076945266638
  O        21.6912826780       -0.0694241882       11.8959135076
  O        51.3649514269       18.6142731461        19.995201683538
  O        10.7513638214       18.7471243142       11.9049267261
  O        50.0792149653       16.4127880514        20.081586815438
  O         9.5246743511       16.4830487995       11.9911755097
 Zr         9.2968036654       16.0527583439        22.172202131838
 Zr        49.8363247714       16.0067814919        9.7465315119
 Zr        22.0732171962        0.0298324493        22.178834014538
 Zr        42.4609301419       35.1535476579        9.8008985290
 Zr        29.6131094035       19.0868117079        22.266298662238
 Zr        29.5802377554       19.1769907582        9.8709884302
 Zr        11.0379493774       19.0520822975        9.8277938706
 Zr        11.0436884074       19.1548675449        22.240997190438
 Zr        31.3326673707       16.1029037065        9.8836384911
 Zr        31.3760635341       15.9977981442        22.272620579138
 Zr        18.6010569372       -0.0015708165        9.7634336084
 Zr        18.5064669358       -0.0077014281        22.203516367838
 Zr        12.3019779415       16.3234818033        23.980157175738
 Zr        48.6160585727       18.8330559391        8.0105175285
 Zr        20.3151217933        2.4732604526        23.980364510038
 Zr        40.6433397062       32.6870552972        23.968093557038
 Zr        28.3432202785       16.3342460060        8.0808248759
 Zr        32.6219160832       18.8355173952        8.0578189299
  H        29.3927594634       17.8162746296        17.630091178638
