     569
 i =      159, E =     -4729.5144394843
  C        11.8587302176       14.0535718218        21.731364769438
  C        12.4562479822       12.8906169679        21.013115097938
  C        11.7045861051       12.1717602792        20.071370878338
  C        12.2809447316       11.1095352141        19.379038981138
  C        13.6214927795       10.7396532874        19.606821638138
  C        14.3546273755       11.4431459500        20.580380806538
  C        13.7817437860       12.5081236477        21.271892877138
  C        14.2610062403        9.6489741782        18.833425975238
  C        14.2562331124        9.6568599384        17.411721773238
  C        13.7429771671       10.7589311056        16.657798099338
  C        49.1267272845       21.2331669110        21.869550157538
  C        48.5499569531       22.4010661161        21.142416399638
  C        49.3000070267       23.0684032315        20.161447885738
  C        48.7330742764       24.1075228635        19.428221876238
  C        47.4025151952       24.5091258130        19.656795765938
  C        46.6715223101       23.8601961269        20.670241968338
  C        47.2339703543       22.8153044611        21.399616727438
  C        46.7723108103       25.5868572784        18.859531691238
  C        46.7613213601       25.5572710101        17.437769033638
  C        47.2612063931       24.4421616259        16.694265749038
  C        14.8602207228        8.5705558049        16.698446795838
  C        14.8918559938        8.5970508783        19.510063846738
  C        49.1132874967       21.2033774421       10.1453419473
  C        48.5279705692       22.3648024831       10.8724766138
  C        49.2671824976       23.0254855334       11.8654270538
  C        48.6908692287       24.0600564272       12.5968838579
  C        47.3604865724       24.4569019214       12.3585948527
  C        46.6401060424       23.8120380160       11.3350237017
  C        47.2136285952       22.7761011054       10.6032552759
  C        46.7220194220       25.5318638045       13.1496316175
  C        46.7336445729       25.5281654018       14.5713404401
  C        47.2489917489       24.4289016481       15.3277118097
  C        40.6202308627       17.0809613414       15.3034777946
  C        40.6285104763       17.0905864488       12.4939285399
  C        11.8830026696       14.0865309242       10.2854932768
  C        12.4722435473       12.9106471333       10.9896126640
  C        11.7147383116       12.1775742861       11.9158452864
  C        12.2812765002       11.0951053825       12.5842780909
  C        13.6200495306       10.7212276246       12.3523758189
  C        14.3579688386       11.4365961575       11.3913729740
  C        13.7925921432       12.5177807021       10.7186618149
  C        14.2536566475        9.6245033501       13.1228198587
  C        14.2523470236        9.6444783517       14.5446646084
  C        13.7423972187       10.7533831109       15.2917516796
  C        22.5119040901        3.2432633868        21.743642031438
  C        23.2277010571        4.3467987303        21.044806797138
  C        24.2227423673        4.0641187191        20.097448578438
  C        24.8509979683        5.1021918297        19.414862044238
  C        24.4993074748        6.4442034330        19.660119887338
  C        23.5328969084        6.7183366739        20.644877771638
  C        22.8999678837        5.6821778671        21.325882953038
  C        25.1039776069        7.5502149626        18.884388814138
  C        25.0710513099        7.5458807355        17.463176792938
  C        24.3696924726        6.5461712455        16.716976979638
  C        38.2978253535       31.9279725927        21.841662139438
  C        37.5554343064       30.8390271793        21.140488186138
  C        36.5892005029       31.1460774992        20.169894463438
  C        35.9580810422       30.1283970132        19.459339056338
  C        36.2775366585       28.7767962552        19.695691089238
  C        37.2130416549       28.4770869722        20.704141169838
  C        37.8481147450       29.4938334689        21.414130890838
  C        35.6678004888       27.6887688254        18.895334556838
  C        35.7114596288       27.7034960081        17.473672064638
  C        36.4258486284       28.7044449549        16.742306929638
  C        25.6877082144        8.6196813478        16.744051831738
  C        25.7037646126        8.6226243638        19.555956663238
  C        38.3318647454       31.9613896090       10.1602858533
  C        37.6183832537       30.8873817975       10.9107390595
  C        36.6842373116       31.1950602788       11.9117638539
  C        36.0779536245       30.1766353978       12.6451310880
  C        36.3914611514       28.8242593331       12.4017156286
  C        37.3070383261       28.5264175504       11.3737411939
  C        37.9147477403       29.5413364222       10.6412889783
  C        35.7787220670       27.7248644784       13.1828023463
  C        35.7675213592       27.7224994148       14.6053114582
  C        36.4509703509       28.7150128866       15.3759801311
  C        46.1356467639       26.6208110549       15.2814795456
  C        46.0881042590       26.5802514788       12.4735845157
  C        22.4608545351        3.2559074534       10.2576075929
  C        23.1542895435        4.3646252723       10.9803680896
  C        24.1563189436        4.0791043941       11.9214624148
  C        24.7830245777        5.1095699061       12.6180110365
  C        24.4277889155        6.4552004672       12.3961996933
  C        23.4492923585        6.7339708718       11.4231742869
  C        22.8179659032        5.7038307496       10.7270294593
  C        25.0557314330        7.5540005480       13.1716627489
  C        25.0462615831        7.5477464479       14.5945058130
  C        24.3561424146        6.5480724147       15.3502785335
  C        26.6266454624       17.8189528717        21.737767002938
  C        25.3160114733       17.8719088404        21.024478022938
  C        25.0522118297       18.8736545923        20.076757357938
  C        23.8345417343       18.8997612214        19.400293892238
  C        22.8446354302       17.9268446049        19.647483624638
  C        23.1037697089       16.9493655808        20.626991324838
  C        24.3226504778       16.9188271020        21.303235668538
  C        21.5721608495       17.9163635460        18.882063520738
  C        21.5778162995       17.9038322736        17.459239621238
  C        22.7860304433       17.7791936028        16.703094139938
  C        34.4448673515       17.1882184965        21.907313636338
  C        35.7372712576       17.1419660637        21.163260877538
  C        35.9463287493       16.1649078356        20.177150327038
  C        37.1251946209       16.1514620328        19.437458093038
  C        38.1287624829       17.1134070713        19.664057281338
  C        37.9232295964       18.0711205622        20.675385906738
  C        36.7408178948       18.0903889068        21.412177214938
  C        39.3809159294       17.1189153654        18.873479829538
  C        39.3713432192       17.1168607575        17.451463250738
  C        38.1612447255       17.2282650455        16.696965839638
  C        20.3342746320       17.9311929984        16.745850025938
  C        20.3450063397       17.9165685190        19.560016149538
  C        34.4401169046       17.2345773877       10.1824034898
  C        35.7422504674       17.1301241244       10.9009950106
  C        35.9376602652       16.1577302352       11.8933016522
  C        37.1277425680       16.1232269010       12.6159181771
  C        38.1496597325       17.0609667411       12.3684423111
  C        37.9596843215       18.0051919744       11.3416452493
  C        36.7700353829       18.0440018271       10.6206725389
  C        39.3985483714       17.0764785476       13.1623386046
  C        39.3800856535       17.0959622188       14.5840628266
  C        38.1653703911       17.2172495831       15.3303416865
  C        35.1264157587       26.6459544512       15.3043122084
  C        35.2018474005       26.6494609083       12.4942400369
  C        26.6015474874       17.8008767558       10.3272885933
  C        25.2912932522       17.8612471799       11.0427171406
  C        25.0312305189       18.8707507663       11.9819428649
  C        23.8093977940       18.9079639260       12.6504704524
  C        22.8174862280       17.9372177226       12.4029381442
  C        23.0739837333       16.9521015265       11.4319047398
  C        24.2952831184       16.9123176117       10.7624197944
  C        21.5478037259       17.9266561897       13.1689153674
  C        21.5648645973       17.9085784521       14.5905740787
  C        22.7793817011       17.7816685208       15.3369016337
  C        14.0502217280       17.8317604584       10.2863667602
  C        15.3597328870       17.8962133014       11.0045818146
  C        15.6191788585       18.9043389551       11.9464835428
  C        16.8315634784       18.9315739745       12.6340059671
  C        17.8204722081       17.9537046248       12.4026725205
  C        17.5664025006       16.9708455227       11.4271244388
  C        16.3533908293       16.9390763015       10.7411332651
  C        19.0898891526       17.9380609102       13.1737428883
  C        19.0831630185       17.9279197511       14.5966918285
  C        17.8731087967       17.8273249609       15.3532840245
  C        46.8022483373       17.2151965101       10.1556135029
  C        45.5077431767       17.1425835568       10.8933994215
  C        45.3026336430       16.1572678373       11.8717462610
  C        44.1179417134       16.1275262346       12.6026550201
  C        43.1075195208       17.0828219471       12.3778419540
  C        43.3088156597       18.0463281284       11.3709239962
  C        44.4945536988       18.0800725810       10.6407746676
  C        41.8547568809       17.0861261096       13.1684334103
  C        41.8647908503       17.0931058395       14.5905525026
  C        43.0759909746       17.1955628930       15.3446721032
  C        20.3269828944       17.9323877542       15.3106009963
  C        20.3177947160       17.9212626585       12.4969460183
  C        46.7856913417       17.2331479473        21.875083121138
  C        45.4858233336       17.1310102681        21.152206403838
  C        45.2691958229       16.1327457373        20.190005345438
  C        44.0831991382       16.1061471695        19.460181954138
  C        43.0835719626       17.0751957575        19.674346678338
  C        43.2918383721       18.0451079856        20.672943372738
  C        44.4786351361       18.0776632486        21.398463168238
  C        41.8355565593       17.0928179533        18.879348497838
  C        41.8552700237       17.0950466700        17.457924916538
  C        43.0716207765       17.1932878853        16.711480050638
  C        46.1533824552       26.6372029367        16.716034423738
  C        46.1624243255       26.6560019635        19.525680932838
  C        14.0443521598       17.8291024849        21.695476809138
  C        15.3626167559       17.8973506863        20.998078234938
  C        15.6378064854       18.9137307789        20.071005689138
  C        16.8652357984       18.9479735569        19.412698394738
  C        17.8456700892       17.9647430827        19.655189481838
  C        17.5762288090       16.9751815002        20.618249434138
  C        16.3510317715       16.9407281209        21.280334263838
  C        19.1148230757       17.9413434566        18.888522281038
  C        19.0964195866       17.9283977078        17.466473387838
  C        17.8796150720       17.8275657627        16.719668169338
  C        28.8036016282       14.0879005020       10.3961963553
  C        28.1903081286       12.9186609896       11.0852777147
  C        28.8980498225       12.2068684805       12.0653781062
  C        28.2974334586       11.1317147642       12.7146091492
  C        26.9748177729       10.7480521487       12.4120272669
  C        26.2901974501       11.4424437417       11.3983910445
  C        26.8887988198       12.5159477200       10.7448701363
  C        26.3024219023        9.6702274881       13.1711046996
  C        26.2825178727        9.6994546277       14.5921536007
  C        26.7729224503       10.8174340966       15.3391087008
  C        32.1921858081       21.2414233539       10.1368630376
  C        32.7869633401       22.4057663816       10.8594817095
  C        32.0211747451       23.1357074147       11.7827711356
  C        32.5960339076       24.1679023156       12.5183706214
  C        33.9516971666       24.5066254501       12.3453100553
  C        34.7019102236       23.7996253586       11.3870510890
  C        34.1305531848       22.7576373703       10.6582083540
  C        34.5756692752       25.5839967694       13.1493820872
  C        34.5424807396       25.5618435802       14.5704596130
  C        34.0170422768       24.4512887529       15.3031503015
  C        25.6789236988        8.6175249552       15.3096406617
  C        25.6714878128        8.6163868705       12.4966720585
  C        32.0937467467       21.1646198151        21.828600643138
  C        32.6549680445       22.3392379697        21.096533394438
  C        31.9240162896       22.9804068879        20.084713119338
  C        32.4896789936       24.0333064184        19.367558804138
  C        33.8021431220       24.4703961555        19.637029147038
  C        34.5129288488       23.8426207951        20.678351070938
  C        33.9506449189       22.7904122908        21.395371115538
  C        34.4422840913       25.5581814028        18.860025283538
  C        34.4758476551       25.5477111416        17.437487054238
  C        33.9865914093       24.4439868579        16.669550670938
  C        40.6152867446       17.0868869808        16.738406209938
  C        40.6067834172       17.1231818589        19.548578137338
  C        28.7455728563       14.0599267486        21.805893729338
  C        28.1340440077       12.9141191240        21.071011945738
  C        28.8613221866       12.2325181407        20.083524780438
  C        28.2791103101       11.1767674894        19.386650792038
  C        26.9536283585       10.7773509620        19.651647835538
  C        26.2440242711       11.4467562526        20.666079717838
  C        26.8246879239       12.5028534466        21.365161124238
  C        26.3091554182        9.6891315027        18.879253974838
  C        26.2889843993        9.7079692230        17.457720295238
  C        26.7753216502       10.8223971408        16.704807265038
  C        18.1354447250        3.1810223439       10.3171888330
  C        17.4062125294        4.2782444013       11.0158655290
  C        16.3903265617        3.9999069019       11.9432081053
  C        15.7425998975        5.0398995256       12.6066773815
  C        16.0946922191        6.3836020054       12.3671506095
  C        17.0843054422        6.6531069616       11.4036249377
  C        17.7334079223        5.6157514911       10.7385973165
  C        15.4702790496        7.4912786738       13.1301658552
  C        15.4855165371        7.4905809443       14.5518768173
  C        16.1871691356        6.4970262606       15.3050354462
  C        42.9458463776       31.8595594689       10.0728208329
  C        43.6462742906       30.7718656746       10.8167452546
  C        44.5915731858       31.0932512108       11.8030172575
  C        45.1973485340       30.0877435906       12.5506846534
  C        44.8712300762       28.7346317845       12.3356584007
  C        43.9457106365       28.4202290244       11.3221711407
  C        43.3368529421       29.4253317801       10.5741070619
  C        45.4888351304       27.6553496863       13.1388576871
  C        45.4929746989       27.6809634382       14.5605583620
  C        44.8059567407       28.6890370636       15.3072114355
  C        14.8564423652        8.5630206990       15.2642227878
  C        14.8749645041        8.5630053459       12.4515503856
  C        42.9464850319       31.9616208015        21.798710600038
  C        43.6917695073       30.8854584353        21.085319199038
  C        44.6563981088       31.1913712321        20.113049631238
  C        45.2779458290       30.1717873830        19.395332491138
  C        44.9541789772       28.8214578309        19.632934181238
  C        44.0206960110       28.5237889008        20.643720065438
  C        43.3924176834       29.5405489392        21.355899427638
  C        45.5631748399       27.7240470681        18.847652762638
  C        45.5334822747       27.7173850224        17.426351444138
  C        44.8272426628       28.7076693181        16.673395849138
  C        35.0947086347       26.6377138924        16.739343804738
  C        35.0500297163       26.6162319212        19.549061906438
  C        18.1485894076        3.2469299839        21.696335207538
  C        17.4300606204        4.3437446438        20.986979691338
  C        16.4146341841        4.0525405285        20.063624065538
  C        15.7663412100        5.0832192327        19.388288990638
  C        16.1212470395        6.4284203965        19.610849030738
  C        17.1129263937        6.7117312517        20.567807309338
  C        17.7605980080        5.6827797868        21.247521074438
  C        15.4906885939        7.5241354038        18.838456227738
  C        15.4965329710        7.5075014650        17.417323177438
  C        16.1933810947        6.5058483698        16.670639723138
  H        10.6724705387       12.4659171445        19.894310354638
  H        11.6946424131       10.5510805073        18.652489539638
  H        15.3916310551       11.1684789898        20.762172305738
  H        14.3511856759       13.0712263122        22.007437257438
  H        13.3759099613       11.6310403726        17.191092967238
  H        50.3227335908       22.7483968498        19.976757257538
  H        49.3195689069       24.6228176985        18.670671780738
  H        45.6419988128       24.1609034657        20.853339402338
  H        46.6629306699       22.2900061852        22.161652242438
  H        47.6296424981       23.5757318658        17.235938670038
  H        14.8722902484        8.5883285598        20.598372785838
  H        50.2872016247       22.7025819667       12.0603832968
  H        49.2692495942       24.5754772613       13.3604194018
  H        45.6107208320       24.1093137841       11.1459162313
  H        46.6527781376       22.2539363220        9.8317140479
  H        47.6077177593       23.5517656130       14.7968050973
  H        40.6316309046       17.0528992170       11.4062317729
  H        48.6870448877       14.0949388057        23.789782565838
  H        10.6812992385       12.4667226134       12.0933139479
  H        11.6894730686       10.5247938867       13.2970316954
  H        15.3933568053       11.1585964805       11.2053553420
  H        14.3649490442       13.0870417537        9.9900607497
  H        13.3754962313       11.6219685612       14.7531220012
  H        47.9301759571       14.2183305623        9.7107842247
  H        47.7799267653       14.3733398543        22.485007397638
  H        49.0826545967       18.5516807669       10.8670132729
  H        10.4160269561       14.1343608410        7.9987485498
  H        24.4809369818        3.0248890230        19.906577340738
  H        25.6228136822        4.8838800614        18.679992635838
  H        23.2551622116        7.7520835445        20.839798993038
  H        22.1313013524        5.8835357298        22.067969719938
  H        23.8116575072        5.7869053227        17.257084156638
  H        36.3576289257       32.1902976857        19.973551106738
  H        35.2101063159       30.3722002198        18.708017239338
  H        37.4683992585       27.4368375873        20.895499679338
  H        38.5959285102       29.2682109217        22.170806404138
  H        36.9853447373       29.4546520128        17.293472739838
  H        25.7453057737        8.6009593084        20.643439017638
  H        36.4524866092       32.2388077832       12.1116497893
  H        35.3464330276       30.4217321379       13.4119826514
  H        37.5632836558       27.4869949958       11.1795779558
  H        38.6422869133       29.3156424847        9.8654377986
  H        37.0306017125       29.4728345913       14.8566558833
  H        46.1096030267       26.5876920773       11.3855506783
  H        44.6684494121       35.1162631348        23.803716379238
  H        24.4347364976        3.0410631163       12.0886263019
  H        25.5636313360        4.8812433177       13.3405646976
  H        23.1637893620        7.7683524576       11.2427917381
  H        22.0465934847        5.9163188469        9.9904101221
  H        23.7873548545        5.7906605155       14.8187606382
  H        44.9543283261       34.3908133372        9.6954403103
  H        44.9024234922       34.2069878656        22.480461474138
  H        40.6669041578       33.2095892734       10.8533967011
  H        23.1503407235        1.9579784989        8.0054924602
  H        25.8111680904       19.6288664840        19.885556047538
  H        23.6352665673       19.6824487574        18.671449980038
  H        22.3515530430       16.1890012780        20.827109118238
  H        24.5337433894       16.1497833480        22.042715288338
  H        23.7242253910       17.6495278071        17.234843554838
  H        35.1678045496       15.4270101846        19.999220213438
  H        37.2849689935       15.3863999035        18.680810081838
  H        38.6896333886       18.8224414227        20.854437501038
  H        36.5661525873       18.8447525038        22.175887861938
  H        37.2234046640       17.3552664869        17.230172201338
  H        20.3477053792       17.9495688765        20.648139649538
  H        35.1380878027       15.4492707233       12.0981131506
  H        37.2772461405       15.3657902292       13.3822296605
  H        38.7419275141       18.7351240984       11.1439631182
  H        36.6039028123       18.7915154318        9.8487446999
  H        37.2301998569       17.3353784210       14.7906307353
  H        35.1929546072       26.6700422324       11.4060986026
  H        28.5093047697       21.0945479157        23.776789774438
  H        25.7968052990       19.6214411234       12.1667915327
  H        23.6079613077       19.6955823797       13.3734537276
  H        22.3183193518       16.1944560793       11.2346012551
  H        24.5065586168       16.1403505338       10.0263713708
  H        23.7124264579       17.6540273324       14.7962126347
  H        28.9507660499       21.7335471458        9.7002638690
  H        29.1928912088       21.7051673884        22.445797471338
  H        32.1371460941       18.5689643930       10.9547870480
  H        27.4017980351       19.0662315204        8.0114197312
  H        14.8596096503       19.6620465469       12.1257739840
  H        17.0266654644       19.7192126907       13.3586937575
  H        18.3183085127       16.2073621349       11.2380522665
  H        16.1471902126       16.1659695228       10.0046679567
  H        16.9321780436       17.7175039775       14.8220240912
  H        46.0892735112       15.4287928988       12.0535748257
  H        43.9610555310       15.3567038009       13.3540324392
  H        42.5367362927       18.7917883513       11.1919546969
  H        44.6657439949       18.8390625167        9.8809258521
  H        44.0157199087       17.3076058091       14.8115160729
  H        20.3162840323       17.9548374551       11.4088465526
  H        46.0453943757       15.3908563430        20.016627087638
  H        43.9179754480       15.3298679254        18.716213641338
  H        42.5258598740       18.7984231794        20.844915753838
  H        44.6592368915       18.8448144160        22.147433542938
  H        44.0081011284       17.3027189421        17.250776911938
  H        46.1992883737       26.6825224788        20.613126459738
  H        52.7410871790       21.0625635631        8.1947084179
  H        14.8803136859       19.6716477320        19.883698535038
  H        17.0777018737       19.7405019863        18.698357618738
  H        18.3237005737       16.2087983642        20.812860078538
  H        16.1288619738       16.1646961489        22.008797846038
  H        16.9435089219       17.7179278754        17.259019792338
  H        52.3222166739       21.6730521553        22.284072070138
  H        52.0128165429       21.7017063401        9.4956365530
  H        49.0677487579       18.6078127581        21.193863491038
  H        13.2475136473       19.0163775221        23.965921169938
  H        29.9130021177       12.5132289799       12.3086295089
  H        28.8481295293       10.5769398451       13.4710413378
  H        25.2683341005       11.1565348680       11.1577285701
  H        26.3578460987       13.0731676885        9.9770187176
  H        27.1232872031       11.6924032401       14.8002025993
  H        30.9720688738       22.8822242644       11.9148863471
  H        31.9972435253       24.7290372970       13.2325755737
  H        35.7509518837       24.0522992366       11.2467173642
  H        34.7153637133       22.1862354557        9.9408952581
  H        33.6636734400       23.5833756663       14.7535156977
  H        25.7069544064        8.5947809203       11.4088753210
  H        30.9180220941       22.6313404691        19.862386671438
  H        31.9137704319       24.5314536149        18.590713747938
  H        35.5288926976       24.1666904144        20.894283110038
  H        34.5071476101       22.2854253352        22.181279550338
  H        33.6114568814       23.5689080764        17.192413354938
  H        40.6035371882       17.0955714236        20.636563822038
  H        32.5066074445       14.1486188195        8.2596630924
  H        29.8828283160       12.5452542015        19.879562013838
  H        28.8504707303       10.6440527027        18.629578255538
  H        25.2184025288       11.1509628406        20.877044541338
  H        26.2733315188       13.0360656174        22.135914833738
  H        27.1263523150       11.7008529949        17.238475716238
  H        33.3125267829       14.2157768405        22.456195106838
  H        33.4065366641       14.3945422646        9.6077772473
  H        32.1189830357       18.4373094484        21.121374626638
  H        30.1972648241       14.1462428457        8.1017464988
  H        16.1181418349        2.9634141098       12.1294780267
  H        14.9530192485        4.8205688184       13.3222076006
  H        17.3669788498        7.6859558510       11.2107245157
  H        18.5156617664        5.8184023627       10.0109800020
  H        16.7538692992        5.7397964950       14.7715295876
  H        44.8276602941       32.1403570731       11.9773387971
  H        45.9370778216       30.3415947810       13.3067309390
  H        43.6833866160       27.3781081505       11.1517969583
  H        42.6006136331       29.1899317843        9.8090977661
  H        44.2307123720       29.4369002136       14.7689271889
  H        14.8512839027        8.5462540961       11.3633282086
  H        44.8999897211       32.2340483105        19.921627401338
  H        46.0248840931       30.4130526274        18.642137399438
  H        43.7637730393       27.4840520223        20.835301630738
  H        42.6459685985       29.3177394652        22.114388843238
  H        44.2688647406       29.4706494704        17.207982123238
  H        34.9982674541       26.6286549646        20.636175569138
  H        36.6054110834       35.1340645772        8.1805587486
  H        16.1433663853        3.0129907588        19.894041522438
  H        14.9738537433        4.8564609245        18.678358483238
  H        17.3967496008        7.7471518068        20.744461708538
  H        18.5437745572        5.8932007152        21.971969060238
  H        16.7649452789        5.7557133200        17.209088055438
  H        36.2789894978       34.4821828919        22.262922772238
  H        36.3814148522       34.2088162109        9.4992569161
  H        40.5793342153       33.2019463436        21.143567007038
  H        17.4709517872        1.9473012890        23.963922932638
  H        29.2575841646       19.1776883502       12.9160026044
  H        28.7711769295       18.6273004332        19.761649297438
  H        31.7831334707       15.6693778454        19.529789648638
  H        31.0730447298       15.4268651171       12.4034882024
  H        28.1181683187       17.9180872652       14.4049448237
  H        29.2632792734       14.9071806243       14.5585733057
  H        32.3547585895       17.1977163156        17.251168259438
  H        18.8537426341        0.8690825110       12.3351700604
  H        40.5283378187       35.2287594677        19.941819565938
  H        42.3241095455       34.4189997099        19.579933079738
  H        22.0876009082        0.6919658935       12.3516416802
  H        11.5970718169       18.7127870957       12.3825951362
  H        52.2649056189       18.4311474261        19.667375036638
  H        49.2545896954       16.4768325250        19.574648279038
  H        10.1501986352       15.7981113295       12.2928726220
  H        50.8499129779       17.6925102886        19.943945096038
  H        10.0460242065       17.3943710403       12.0520430956
  H        20.2152001617        0.0022884504       12.0418837475
  H        39.1839612937       36.1244008304        19.676195040538
 Ni        30.5706050826       17.5039265771        18.734222148838
 Ni        30.9427807893       16.0084022374       15.748051342538
 Ni        29.7989030260       18.0412914824        16.156149003538
 Ni        30.3095046080       17.1606115111       13.5707119571
  O        10.6499389058       14.3651206009        21.475647269438
  O        12.6132155467       14.6575679746        22.573726249238
  O        49.1478650272       16.8459510533        23.979590960438
  O        50.3502185087       20.9359123695        21.637993032538
  O        48.3485239048       20.5932708324        22.655804444138
  O        11.0519115111       17.0536381808        22.490486713238
  O        50.3211292025       20.8816589245       10.4068232526
  O        48.3467701979       20.5867315396        9.3271394261
  O        49.5437371359       18.2483811762       10.0682544421
  O        12.3591153931       18.6245417976        7.9998446683
  O        48.6932352324       14.1486258777        22.741071588938
  O         8.2099219687       14.2103914866        9.3225266862
  O        10.7354340174       14.5067918164       10.6643253997
  O        12.5718787456       14.5829003388        9.3284924358
  O        22.8441504797        2.0419945537        21.477376261638
  O        21.6051686193        3.5917498931        22.579728297638
  O        42.0581428994       34.1373368920        23.968757264338
  O        37.9813168617       33.1366671643        21.561997506738
  O        39.2170361425       31.5749887614        22.655342049638
  O        20.3083248961        1.0393690813        22.491894917438
  O        38.0244288123       33.1849662309       10.4157050729
  O        39.2189463941       31.5833831162        9.3268475009
  O        40.6522574753       33.7692916259       10.0601100097
  O        18.2555290050        1.3759830685        7.9967901141
  O        44.6222319549       35.1005153984        22.748570477538
  O        24.2054060060        0.0000109860        9.3207714290
  O        22.7529456683        2.0577047548       10.5837867691
  O        21.6243304458        3.5958614828        9.3425029609
  O        27.5244089669       18.6796853184        21.406823461638
  O        26.7626566689       16.9290240636        22.641423829138
  O        30.6603160611       19.4038718119        8.0075689848
  O        33.5924534924       16.2715899842        21.659827143038
  O        34.2759875978       18.1648136461        22.723886609238
  O        29.5966363463       17.0100498699        22.572801340038
  O        33.5538960915       16.3406561069       10.4132371857
  O        34.2971974715       18.2414111758        9.4056027412
  O        31.6374446187       18.3178565361       10.1614957321
  O        30.2996220711       15.1114791982        8.0941538166
  O        28.5541414467       21.0279773572        22.734512533338
  O        28.5114745233       20.9544241253        9.3208845894
  O        27.5152202959       18.6240546630       10.6649558119
  O        26.6965108210       16.9227718211        9.4001174866
  O        13.1502799815       18.6929014556       10.5875748963
  O        13.9205187946       16.9164511198        9.4056654367
  O        50.5959862522       19.3501449560        8.0208621657
  O        47.6831932928       16.3268890138       10.4170558018
  O        46.9506189156       18.1755771298        9.3253381697
  O        11.0698460226       17.0154811171        9.4896406462
  O        47.6757860290       16.3359121782        21.642573600038
  O        46.9261533278       18.2358291487        22.653519128138
  O        49.5685888952       18.3176825597        21.972248444138
  O        10.3187258200       15.1002201377        7.9971189714
  O        52.6707357449       21.0278704070        9.2418472981
  O        12.1468130662       20.8910714875        22.663013104338
  O        13.1079767892       18.6135600353        21.315143720038
  O        13.9576312941       16.9871791280        22.654709507038
  O        29.9894619523       14.4378471738       10.7304324752
  O        28.0866661643       14.6523780994        9.4981731001
  O        32.0732843943       16.8576676415        8.0788577664
  O        30.9688667601       20.9533247719       10.4090143686
  O        32.9459755466       20.5998697527        9.3333307492
  O        29.5613153151       17.0838812320        9.5719961044
  O        30.8855870891       20.8137393476        21.564752084538
  O        32.8713246052       20.5826620493        22.654457150038
  O        31.6841311423       18.2401687007        21.968995203238
  O        28.2907794079       18.6748183108        8.0029360448
  O        32.4898984632       14.2132169295        9.3314515490
  O        32.4085871303       14.2105125697        22.813557444038
  O        29.9166492362       14.4309751919        21.479417266938
  O        28.0367948502       14.5853411386        22.739336047638
  O        17.8892100806        1.9666025588       10.6628075737
  O        18.9561844180        3.5271232719        9.4079728785
  O        39.1685757370       34.1386356716        7.9971041201
  O        43.2801602649       33.0589234221       10.3317034679
  O        42.0343865953       31.5064618756        9.2415855143
  O        20.3176286438        1.0367139383        9.4801805253
  O        43.2760833198       33.1825438126        21.564664206038
  O        42.0052345106       31.5840866672        22.572741555038
  O        40.5788931606       33.7748461631        21.925522401438
  O        22.3673411099        1.3845658803        7.9980049178
  O        36.6727936177       35.0997040009        9.2332947306
  O        16.4456324357        0.0641721920        22.658080544538
  O        17.9364384249        2.0432258342        21.316203608938
  O        18.9189286925        3.5930910994        22.655703813838
  O        29.7021179011       18.6035336857        20.051243749938
  O        29.6968904546       19.4940241357       12.0738135564
  O        31.3443470271       16.3369846538        20.086802759438
  O        31.2637796826       16.3313155075       12.0737211832
  O        31.6477344195       16.5477475038        17.418387825938
  O        30.1728482339       15.1657157249       14.3205483148
  O        29.0066692884       18.3197325955       14.4222826685
  O        39.4568848674       35.2436908566        19.991733718138
  O        19.1416105336        0.0045799088       11.9904746214
  O        41.9693923571       35.1725323615        20.076832061438
  O        21.6911810481       -0.0694377336       11.8959339726
  O        51.3649918942       18.6142871340        19.995242022638
  O        10.7513391838       18.7471705590       11.9049278018
  O        50.0792170062       16.4128031424        20.081636833838
  O         9.5244401431       16.4830084217       11.9912278511
 Zr         9.2966939104       16.0526772937        22.172221892638
 Zr        49.8362900113       16.0066847337        9.7464931991
 Zr        22.0735430553        0.0301277445        22.178604684338
 Zr        42.4612105735       35.1539373543        9.8010038195
 Zr        29.6144415005       19.0285665076        22.187299022338
 Zr        29.5693785914       19.1910371333        9.7561338644
 Zr        11.0382491867       19.0517449028        9.8279356691
 Zr        11.0436444048       19.1546413793        22.241219958938
 Zr        31.3325463745       16.0921063830        9.9003180251
 Zr        31.3866568482       15.9816565492        22.241838480338
 Zr        18.6014576446       -0.0010152514        9.7633426745
 Zr        18.5069012205       -0.0073982302        22.203360091238
 Zr        12.3023510768       16.3235307085        23.980333114238
 Zr        48.6158806958       18.8328335429        8.0104752086
 Zr        20.3154710787        2.4739317973        23.980348697438
 Zr        40.6436988551       32.6874583580        23.967591036838
 Zr        28.3532433419       16.3092333070        8.0716292538
 Zr        32.6279557231       18.8078630775        8.0301897777
  H        30.1044383268       18.5652068964        17.650675410038
  H        30.2823021624       20.2461510994       12.2746898814
  H        31.1361716331       17.4403167455       15.0139605524
