     566
 i =      186, E =     -4712.2919063120
  C        11.8584976363       14.0535045160        21.731393579338
  C        12.4559504491       12.8904609268        21.013036312038
  C        11.7043487949       12.1719204801        20.071030594738
  C        12.2806487784       11.1096794509        19.378649115738
  C        13.6210454286       10.7394430874        19.606682803638
  C        14.3540643882       11.4425987134        20.580569187938
  C        13.7812550969       12.5075804738        21.272140046038
  C        14.2605470528        9.6487692876        18.833284608638
  C        14.2558464757        9.6566468370        17.411577086538
  C        13.7427547189       10.7587812940        16.657635503638
  C        49.1264175764       21.2333953347        21.869597384738
  C        48.5494866538       22.4011861516        21.142501285938
  C        49.2996187947       23.0686810477        20.161694195238
  C        48.7326499406       24.1077376610        19.428437060338
  C        47.4019788052       24.5090807044        19.656804925138
  C        46.6708662674       23.8599539448        20.670034104838
  C        47.2333513191       22.8151023055        21.399447345338
  C        46.7718127803       25.5868028146        18.859516187438
  C        46.7609364920       25.5572537796        17.437756730138
  C        47.2608899863       24.4421601253        16.694280967838
  C        14.8597011899        8.5702412800        16.698337372438
  C        14.8912154499        8.5967604817        19.509948846438
  C        49.1128148661       21.2034516256       10.1453410845
  C        48.5273348684       22.3647131004       10.8724938189
  C        49.2666551604       23.0256588400       11.8651943512
  C        48.6902266594       24.0601429575       12.5966566408
  C        47.3596895855       24.4566298253       12.3586375982
  C        46.6391757791       23.8113939885       11.3354010962
  C        47.2127786353       22.7755352878       10.6035816825
  C        46.7212340448       25.5315955857       13.1496555522
  C        46.7331424760       25.5280368998       14.5713550844
  C        47.2486262387       24.4288410986       15.3277287739
  C        40.6148419167       17.0797621324       15.3176522395
  C        40.6293131111       17.1042491530       12.5074522628
  C        11.8826230747       14.0864190475       10.2854375357
  C        12.4716656782       12.9102637409       10.9894721383
  C        11.7141654948       12.1774841283       11.9159163846
  C        12.2805045922       11.0948961198       12.5843511036
  C        13.6191211226       10.7206541176       12.3522068646
  C        14.3570337886       11.4356615075       11.3909358725
  C        13.7918115091       12.5169535128       10.7182632325
  C        14.2526758571        9.6239222454       13.1226830548
  C        14.2516948110        9.6440718054       14.5445309868
  C        13.7420323030       10.7531293640       15.2915869071
  C        22.5087259902        3.2428535991        21.742251217238
  C        23.2184381421        4.3476786203        21.038839654338
  C        24.2148175649        4.0668846264        20.092615030538
  C        24.8381937160        5.1061760906        19.407570908038
  C        24.4796510882        6.4469901688        19.649306625138
  C        23.5106524448        6.7194921766        20.631774944538
  C        22.8829647454        5.6819964422        21.315447341938
  C        25.0847065894        7.5524659998        18.873698423938
  C        25.0639988007        7.5427078107        17.452474409738
  C        24.3638121591        6.5429564150        16.705214655338
  C        38.2970633749       31.9279548254        21.842381123038
  C        37.5529777409       30.8402720654        21.142676267138
  C        36.5856770734       31.1492287690        20.173676919538
  C        35.9521562502       30.1328785331        19.463792672538
  C        36.2703221958       28.7807567752        19.698978934438
  C        37.2067465929       28.4791968575        20.706082027338
  C        37.8441654400       29.4946204895        21.415667382038
  C        35.6571672301       27.6945043615        18.899468512838
  C        35.6948847135       27.7112879166        17.477617273838
  C        36.4087830152       28.7116076216        16.744931859938
  C        25.6919950249        8.6104537932        16.734073312038
  C        25.6772916249        8.6285691607        19.545811621738
  C        38.3302033689       31.9601615754       10.1610832120
  C        37.6134252999       30.8878559945       10.9117006794
  C        36.6788786995       31.1988874718       11.9117842073
  C        36.0673962813       30.1833555517       12.6451741597
  C        36.3749780222       28.8290127112       12.4038729462
  C        37.2910730000       28.5278820226       11.3769264016
  C        37.9041681913       29.5399957810       10.6442691863
  C        35.7567179997       27.7321542057       13.1860318253
  C        35.7456336618       27.7306066187       14.6088639702
  C        36.4315511367       28.7219966075       15.3785632599
  C        46.1351819627       26.6207047337       15.2814759387
  C        46.0871794705       26.5798653463       12.4735739371
  C        22.4604699496        3.2541657793       10.2555074990
  C        23.1558077456        4.3621400908       10.9763094111
  C        24.1613938585        4.0746366852       11.9125931385
  C        24.7904928084        5.1042659798       12.6074996284
  C        24.4329847830        6.4493156503       12.3878487554
  C        23.4507443560        6.7302853760       11.4197299733
  C        22.8171475480        5.7008714222       10.7250972047
  C        25.0637421235        7.5456807973       13.1625257091
  C        25.0541741677        7.5383907866       14.5847443079
  C        24.3569683203        6.5421837884       15.3387162078
  C        26.5538416015       17.8488856768        21.779225473538
  C        25.2515695110       17.8980315026        21.051831507838
  C        24.9896885325       18.9129697695        20.118531562638
  C        23.7833199599       18.9338034537        19.423288866438
  C        22.8054185235       17.9436627698        19.643017684938
  C        23.0614479930       16.9517782595        20.607636988338
  C        24.2703646621       16.9253065379        21.299807653338
  C        21.5404939367       17.9331478849        18.870450755838
  C        21.5511171125       17.9306217715        17.448917374138
  C        22.7628112648       17.8224248999        16.695900417538
  C        34.4175894098       17.2178561690        21.906046572138
  C        35.7112545216       17.1510887672        21.164686419938
  C        35.9040510862       16.1868897203        20.163049765538
  C        37.0871612330       16.1609309383        19.429233210838
  C        38.1096869191       17.0987410483        19.674330585738
  C        37.9188464952       18.0423901556        20.702246709538
  C        36.7341864106       18.0729324684        21.434733792738
  C        39.3642499865       17.0997023001        18.886050269538
  C        39.3592568355       17.1084445733        17.463414122338
  C        38.1524330939       17.2329171302        16.705512418238
  C        20.3089192832       17.9525808755        16.734423592338
  C        20.3140835902       17.9229191518        19.546863181438
  C        34.4356502037       17.2378793523       10.1891320704
  C        35.7362133021       17.1391774389       10.9142278689
  C        35.9410884128       16.1606020680       11.8984309864
  C        37.1316956760       16.1292559594       12.6208538316
  C        38.1477995715       17.0750743912       12.3798284897
  C        37.9488547514       18.0267066029       11.3617600138
  C        36.7576138987       18.0631970871       10.6426442392
  C        39.3978240330       17.0891500603       13.1733757105
  C        39.3766736630       17.1030007714       14.5952445948
  C        38.1607244118       17.2278666253       15.3387831489
  C        35.1026453184       26.6554394388       15.3089104885
  C        35.1749243296       26.6584512096       12.4989884219
  C        26.5709038954       17.8297702924       10.3252260366
  C        25.2548258700       17.8852456108       11.0262389813
  C        24.9883490332       18.9056125437       11.9514921503
  C        23.7704864818       18.9393492763       12.6244950428
  C        22.7908550269       17.9536861254       12.3927756929
  C        23.0507062363       16.9590753198       11.4330379736
  C        24.2696355960       16.9226660474       10.7593465318
  C        21.5256619591       17.9426776362       13.1615786791
  C        21.5429907761       17.9351572957       14.5825282491
  C        22.7585089033       17.8241748960       15.3297553777
  C        14.0455431409       17.8329721795       10.2829208215
  C        15.3530264525       17.9005693410       10.9980199461
  C        15.6116808026       18.9170100089       11.9303039689
  C        16.8228795928       18.9467100239       12.6176095859
  C        17.8062260064       17.9627034141       12.3932874403
  C        17.5536984617       16.9719025050       11.4264434885
  C        16.3420203631       16.9379358670       10.7403203020
  C        19.0717620089       17.9495414090       13.1647510160
  C        19.0617845381       17.9443319403       14.5862390022
  C        17.8496293826       17.8424142318       15.3389079325
  C        46.8013657348       17.2170979176       10.1589712302
  C        45.5088841369       17.1481793012       10.9026476849
  C        45.3050290821       16.1656865145       11.8845032722
  C        44.1217417879       16.1374156003       12.6185011661
  C        43.1095507526       17.0915530746       12.3946980193
  C        43.3106751614       18.0535543673       11.3858272909
  C        44.4947919083       18.0856613706       10.6523462140
  C        41.8550605445       17.0938945400       13.1844275670
  C        41.8612879121       17.0925862714       14.6072156769
  C        43.0702706826       17.1876375530       15.3659417219
  C        20.3043225444       17.9542047545       15.3005871420
  C        20.2980190832       17.9299714739       12.4882470463
  C        46.7824531167       17.2306892651        21.877772425438
  C        45.4782992528       17.1213434023        21.162374613538
  C        45.2599032356       16.1189953395        20.204613025338
  C        44.0707898025       16.0861305550        19.479744904538
  C        43.0684251893       17.0524591292        19.694209519238
  C        43.2775520973       18.0248762275        20.690387520938
  C        44.4677710737       18.0640493160        21.410622064638
  C        41.8203776040       17.0689472686        18.897644436938
  C        41.8435577180       17.0782861430        17.476002111338
  C        43.0618853510       17.1778116676        16.732761086138
  C        46.1530034544       26.6371782844        16.716014922238
  C        46.1618309850       26.6558925927        19.525640373838
  C        14.0385335940       17.8272257748        21.695390960638
  C        15.3509289551       17.8940587332        20.992561837338
  C        15.6207549223       18.9169504334        20.071674166038
  C        16.8437382378       18.9530313629        19.407206339038
  C        17.8207590361       17.9650466869        19.639714379638
  C        17.5562884540       16.9673673683        20.594920203538
  C        16.3355307001       16.9311002503        21.263336132138
  C        19.0869204387       17.9480905840        18.872916242338
  C        19.0698838268       17.9423155964        17.452031476638
  C        17.8536215386       17.8413145784        16.704879906638
  C        28.8080251301       14.0856689023       10.3941373578
  C        28.1963386713       12.9110122917       11.0786042369
  C        28.9282305197       12.1527168129       12.0043009951
  C        28.3292829998       11.0775818872       12.6556544145
  C        26.9856732144       10.7361724112       12.4022742543
  C        26.2750663704       11.4735396881       11.4386776384
  C        26.8711999208       12.5500681926       10.7873825639
  C        26.3180265520        9.6552603729       13.1622525466
  C        26.3072307523        9.6798138210       14.5827597789
  C        26.8168044889       10.7897110678       15.3285511184
  C        32.1784159090       21.2380366476       10.1476916026
  C        32.7740015548       22.4023908565       10.8700859133
  C        32.0160830927       23.0974702037       11.8255078222
  C        32.5830393810       24.1384123439       12.5546090165
  C        33.9248428134       24.5146153475       12.3502403748
  C        34.6665367957       23.8382245556       11.3632445279
  C        34.1015166177       22.7915690705       10.6358158446
  C        34.5470192914       25.5929835655       13.1540274851
  C        34.5168924347       25.5713025042       14.5760770560
  C        33.9930290071       24.4613225711       15.3114761805
  C        25.6921220382        8.6043288967       15.3001142218
  C        25.6796092195        8.6075261082       12.4871345107
  C        32.0702639798       21.1974880827        21.870239274938
  C        32.6370948123       22.3654283595        21.130707231538
  C        31.8986038004       23.0173541179        20.131073537238
  C        32.4678316607       24.0593849228        19.400520510138
  C        33.7898136790       24.4798003719        19.648934664538
  C        34.5090137087       23.8418056625        20.678245300838
  C        33.9450063761       22.7965715367        21.404615134838
  C        34.4289070776       25.5659154722        18.867488174138
  C        34.4551952802       25.5580299743        17.444777390838
  C        33.9624339086       24.4553832847        16.677994475838
  C        40.6054008871       17.0775139409        16.753064997238
  C        40.5895473624       17.0960712376        19.563542023538
  C        28.7357725478       14.0670205552        21.775680761038
  C        28.1191518721       12.9196741722        21.047421040038
  C        28.8598852202       12.2001488186        20.097146294738
  C        28.2759865027       11.1425083684        19.405616566638
  C        26.9355042846       10.7778896708        19.640555598938
  C        26.2115643205       11.4821981275        20.620264825438
  C        26.7942666155       12.5410294515        21.313874981338
  C        26.2940497894        9.6877190297        18.868963826338
  C        26.2951707226        9.6973391931        17.447579802938
  C        26.8083124808       10.7997019593        16.694225191238
  C        18.1351655058        3.1807593573       10.3171625424
  C        17.4055538271        4.2778939203       11.0156853261
  C        16.3901500425        3.9992947776       11.9434721336
  C        15.7421921225        5.0391489779       12.6069444723
  C        16.0935836446        6.3829620454       12.3670335943
  C        17.0825656409        6.6526829351       11.4029059727
  C        17.7318981332        5.6154870959       10.7378661103
  C        15.4691543158        7.4905950364       13.1300658869
  C        15.4846593290        7.4900466804       14.5517782173
  C        16.1863568444        6.4965342035       15.3049524208
  C        42.9457003032       31.8593655448       10.0728314639
  C        43.6459595914       30.7716857187       10.8167301377
  C        44.5915292911       31.0929459100       11.8027957611
  C        45.1971322742       30.0873622533       12.5504630611
  C        44.8705414695       28.7343253795       12.3356472817
  C        43.9446582356       28.4200322428       11.3224722122
  C        43.3359548632       29.4252192414       10.5744099109
  C        45.4880917093       27.6550441717       13.1388602013
  C        45.4924572295       27.6808088469       14.5605452606
  C        44.8053925391       28.6888801271       15.3071574906
  C        14.8557643737        8.5626056469       15.2641081684
  C        14.8737201306        8.5622579544       12.4514435237
  C        42.9463289317       31.9614545233        21.798738228438
  C        43.6915290392       30.8853539829        21.085360841938
  C        44.6561944418       31.1912326984        20.113105187138
  C        45.2776412353       30.1716515425        19.395334927138
  C        44.9536550592       28.8213538358        19.632850251438
  C        44.0200539433       28.5236713988        20.643513472038
  C        43.3918794187       29.5404612106        21.355722339238
  C        45.5626731517       27.7239685801        18.847596552138
  C        45.5330524602       27.7173407897        17.426303477038
  C        44.8267467012       28.7075716899        16.673340136738
  C        35.0737463704       26.6472563645        16.744436105938
  C        35.0419390668       26.6216179453        19.554976721438
  C        18.1483454764        3.2468220520        21.696400043738
  C        17.4295900653        4.3436134014        20.987133671938
  C        16.4145711851        4.0522910769        20.063378351038
  C        15.7661645649        5.0828686313        19.387984716138
  C        16.1205668277        6.4281492795        19.610858073738
  C        17.1117020702        6.7116052043        20.568351514838
  C        17.7594279198        5.6827297881        21.248119042238
  C        15.4900717780        7.5238257918        18.838387599438
  C        15.4959373543        7.5071590522        17.417250839738
  C        16.1926924889        6.5054516318        16.670556416938
  H        10.6723493739       12.4663813866        19.893770602138
  H        11.6943840227       10.5514667043        18.651881883638
  H        15.3909329364       11.1676071650        20.762634936538
  H        14.3505326556       13.0704038100        22.008030612838
  H        13.3758429040       11.6309727854        17.190904796338
  H        50.3224249762       22.7488514910        19.977170153938
  H        49.3191473254       24.6231661275        18.670982391338
  H        45.6412161611       24.1603824695        20.852892707538
  H        46.6621967707       22.2896148650        22.161269270938
  H        47.6293162533       23.5757414822        17.235978180638
  H        14.8714682915        8.5879909152        20.598254091338
  H        50.2867942485       22.7030145743       12.0599395138
  H        49.2686259862       24.5758001530       13.3600146512
  H        45.6096253523       24.1082862312       11.1465798495
  H        46.6518249294       22.2530895700        9.8323018974
  H        47.6072824962       23.5516650214       14.7968409154
  H        40.6342804137       17.0718666669       11.4195575221
  H        48.6868983905       14.0950666532        23.789721380938
  H        10.6808500548       12.4669804982       12.0935574747
  H        11.6886785167       10.5248238034       13.2972803160
  H        15.3922803409       11.1572973149       11.2046815530
  H        14.3640808433       13.0859460880        9.9893800535
  H        13.3751911621       11.6217147384       14.7529123223
  H        47.9299197193       14.2184505476        9.7106951236
  H        47.7798932021       14.3737167059        22.484896523238
  H        49.0817590516       18.5518169023       10.8669294732
  H        10.4154357950       14.1343649697        7.9988210023
  H        24.4781931212        3.0283264189        19.905143010838
  H        25.6119152192        4.8898910423        18.674120273738
  H        23.2271625377        7.7523157196        20.823295181738
  H        22.1126036767        5.8810804006        22.056366567438
  H        23.8000910785        5.7873305300        17.244570528538
  H        36.3552418557       32.1938242040        19.978180588938
  H        35.2032213102       30.3777949760        18.713812543738
  H        37.4606519821       27.4384524711        20.896635069938
  H        38.5925265536       29.2675899820        22.171367794438
  H        36.9707801038       29.4607805171        17.294906567038
  H        25.7058552266        8.6141647644        20.633825040238
  H        36.4504475929       32.2434725579       12.1111002344
  H        35.3359655045       30.4325971856       13.4107919137
  H        37.5433397777       27.4873842511       11.1831786054
  H        38.6314568619       29.3098599861        9.8694147506
  H        37.0117437794       29.4788348965       14.8584509666
  H        46.1083777597       26.5870884145       11.3855340733
  H        44.6681244343       35.1160681231        23.803836027738
  H        24.4398907590        3.0361894270       12.0769276056
  H        25.5738262451        4.8762093261       13.3271733226
  H        23.1644040488        7.7649554951       11.2424579209
  H        22.0425086943        5.9129390205        9.9918224446
  H        23.7874700960        5.7865054360       14.8055163120
  H        44.9533863798       34.3898448580        9.6947839714
  H        44.9016600943       34.2066976650        22.480467019438
  H        40.6658437414       33.2084749583       10.8529817732
  H        23.1501753928        1.9573040700        8.0047469353
  H        25.7413658326       19.6817654045        19.955766882538
  H        23.5815070979       19.7251915575        18.704619359738
  H        22.3145926250       16.1802561192        20.783375361438
  H        24.4833559872       16.1474624647        22.029265375338
  H        23.7009529791       17.7045983868        17.230626106738
  H        35.1082872751       15.4720499848        19.966743524638
  H        37.2340634446       15.4051243704        18.660833181538
  H        38.6986205723       18.7757857313        20.897088879138
  H        36.5721955590       18.8172793951        22.210983999838
  H        37.2134611582       17.3657520533        17.235398181238
  H        20.3150753360       17.9485226625        20.635081173238
  H        35.1494149276       15.4415996019       12.0960163699
  H        37.2869909655       15.3672565087       13.3814787343
  H        38.7252803255       18.7641293781       11.1688510264
  H        36.5853827804       18.8167483334        9.8779445543
  H        37.2279884602       17.3556698690       14.7969933357
  H        35.1640665491       26.6790872360       11.4108533114
  H        28.4945357034       21.0777233658        23.877762168838
  H        25.7483514825       19.6648117389       12.1219692499
  H        23.5616393117       19.7336351338       13.3379728905
  H        22.3004557042       16.1927584334       11.2491950028
  H        24.4877372488       16.1438283742       10.0325736699
  H        23.6933259972       17.7079272338       14.7895228576
  H        29.0283127811       21.7117228337        9.7253847020
  H        29.2116382979       21.6901015927        22.555390523838
  H        32.0651730889       18.5670060613       10.9868627490
  H        27.3675272488       19.0218969176        8.0741801838
  H        14.8525255165       19.6768956937       12.1013605945
  H        17.0219283132       19.7385751409       13.3365300628
  H        18.3050185551       16.2058458440       11.2460117326
  H        16.1319901445       16.1603627666       10.0098094347
  H        16.9103959284       17.7318537618       14.8049321451
  H        46.0913325996       15.4367466168       12.0661584136
  H        43.9671413913       15.3669706260       13.3707457767
  H        42.5388568739       18.7992683935       11.2066391956
  H        44.6633034920       18.8435392231        9.8907353058
  H        44.0119764616       17.3006803118       14.8364541611
  H        20.2973030303       17.9571228896       11.4000580691
  H        46.0378923838       15.3794090273        20.029375465638
  H        43.9060367317       15.3075157071        18.738089919738
  H        42.5098905059       18.7761828245        20.863752017638
  H        44.6481970929       18.8342114157        22.156600597138
  H        43.9973258433       17.2821417391        17.274838388338
  H        46.1984950602       26.6823162972        20.613094382938
  H        52.7410714182       21.0625675044        8.1945919410
  H        14.8630241790       19.6772270202        19.895828832838
  H        17.0564205524       19.7495698316        18.697468041938
  H        18.3040804932       16.1985515946        20.778043777838
  H        16.1133676645       16.1509538405        21.987325939438
  H        16.9173563972       17.7297841845        17.243583818538
  H        52.3219879178       21.6735067158        22.284655733938
  H        52.0131519116       21.7023236180        9.4953620339
  H        49.0664249250       18.6075658360        21.194362187138
  H        13.2469028991       19.0165958799        23.965333687138
  H        29.9649269373       12.4190972778       12.1974216558
  H        28.8967215554       10.4884922291       13.3729439247
  H        25.2367865047       11.2183314236       11.2368926667
  H        26.3208872403       13.1417116843       10.0599752938
  H        27.1877422479       11.6550448699       14.7876357355
  H        30.9839973423       22.7984634812       11.9907878155
  H        31.9888818323       24.6753302700       13.2908538373
  H        35.7052568994       24.1177283043       11.1991013389
  H        34.6805647451       22.2457856478        9.8943368223
  H        33.6409861047       23.5919527208       14.7635233267
  H        25.7078906047        8.5903192376       11.3990734190
  H        30.8826739850       22.6849500439        19.929586767038
  H        31.8869527879       24.5639372853        18.631464785138
  H        35.5323705137       24.1528016283        20.877894816138
  H        34.5088864520       22.2831893018        22.179802662338
  H        33.5872956685       23.5808690130        17.202137064238
  H        40.5839453743       17.0621751395        20.651378540038
  H        32.5083815820       14.1505023021        8.2501624806
  H        29.8964064291       12.4786003221        19.922157420838
  H        28.8566736013       10.5797827811        18.677900848338
  H        25.1745508503       11.2112098431        20.807623891838
  H        26.2333796289       13.1016744901        22.057920253438
  H        27.1709847932       11.6733790219        17.227931408938
  H        33.2987092726       14.2205409462        22.433906418738
  H        33.4046121099       14.4164417613        9.5982931120
  H        32.0710543171       18.5105844574        21.154897753738
  H        30.2020888563       14.1433891837        8.0838477664
  H        16.1184977821        2.9627173070       12.1300764361
  H        14.9529656860        4.8195842833       13.3227972326
  H        17.3645088012        7.6856423249       11.2095230689
  H        18.5135887167        5.8182682845       10.0096828209
  H        16.7528614114        5.7391525391       14.7714581716
  H        44.8279087433       32.1400052895       11.9769605300
  H        45.9370031802       30.3410306318       13.3064281576
  H        43.6817786330       27.3779960734       11.1524351550
  H        42.5993184911       29.1898845440        9.8097609201
  H        44.2299483244       29.4365917937       14.7688723682
  H        14.8497310633        8.5453294943       11.3632292691
  H        44.8998528023       32.2338963723        19.921730627538
  H        46.0245819025       30.4128062971        18.642110961838
  H        43.7628359377       27.4839704336        20.834895313638
  H        42.6452304662       29.3176336073        22.114010113838
  H        44.2681754954       29.4704145037        17.207921419738
  H        34.9960765377       26.6322166961        20.642372891938
  H        36.6051524189       35.1339617714        8.1805431171
  H        16.1436795196        3.0126805258        19.893536745338
  H        14.9739589288        4.8559298984        18.677794410338
  H        17.3949242104        7.7471170241        20.745435974938
  H        18.5420539284        5.8932355326        21.973133387338
  H        16.7641601685        5.7552390805        17.208992449238
  H        36.2787875848       34.4820692943        22.263262775538
  H        36.3806669285       34.2090313361        9.4995474132
  H        40.5785033917       33.2011929406        21.144021198238
  H        17.4706121505        1.9470332254        23.963749664238
  H        29.4345339289       19.5499338014       12.5916087007
  H        28.7779220241       18.8590272624        19.768872016638
  H        30.8368494157       15.5042314576        19.712662967438
  H        31.2412611048       15.5808610402       12.5556681964
  H        28.4299720597       18.3333733454       14.5520754438
  H        29.5975332582       15.6578566366       14.5528249336
  H        18.8526828035        0.8687815560       12.3350329657
  H        40.5282560414       35.2292714023        19.942064485838
  H        42.3229271839       34.4181286852        19.580907199638
  H        22.0875049366        0.6920546052       12.3515336745
  H        11.5966463880       18.7125610827       12.3824390561
  H        52.2646752632       18.4310255144        19.667618458138
  H        49.2544855855       16.4768431006        19.574374565638
  H        10.1496757945       15.7983749887       12.2928593745
  H        50.8496310348       17.6927313077        19.943847166338
  H        10.0455570721       17.3947153931       12.0519476435
  H        20.2137946645        0.0019662912       12.0421285701
  H        39.1836229972       36.1243421029        19.676046726238
 Ni        30.5211734097       17.6157078959        18.737179066138
 Ni        30.7749490484       16.5528422109        16.404384069538
 Ni        29.8057287048       18.5198075408        16.482331076438
 Ni        30.2256841750       17.5044794058       13.2458773553
  O        10.6498368797       14.3651547936        21.475534351138
  O        12.6130653005       14.6574104397        22.573660328838
  O        49.1475007283       16.8459886002        23.979527017538
  O        50.3500270889       20.9364491146        21.638122276038
  O        48.3484299596       20.5932556781        22.655817736038
  O        11.0507599591       17.0541031853        22.490370078038
  O        50.3206642589       20.8817558302       10.4069105887
  O        48.3466035359       20.5866666958        9.3270531751
  O        49.5431372103       18.2484484246       10.0683519704
  O        12.3586175328       18.6246411708        7.9997149733
  O        48.6931358831       14.1486834558        22.741036690838
  O         8.2097578374       14.2104591510        9.3225942054
  O        10.7352040528       14.5067734615       10.6643769740
  O        12.5717049269       14.5827215014        9.3285780762
  O        22.8441204894        2.0424238030        21.477312280638
  O        21.6042914670        3.5915912161        22.580292539938
  O        42.0578034320       34.1368937044        23.968747863838
  O        37.9812734296       33.1369256768        21.562333607138
  O        39.2171751478       31.5751840552        22.655424755038
  O        20.3082368324        1.0392831147        22.491629344338
  O        38.0242286901       33.1846797536       10.4157812429
  O        39.2181064976       31.5827210295        9.3277605463
  O        40.6520579640       33.7689442897       10.0601885966
  O        18.2555463186        1.3762008214        7.9968089603
  O        44.6222321457       35.1004949579        22.748570089138
  O        24.2054182663       -0.0000585527        9.3208123798
  O        22.7527371621        2.0567607908       10.5831862826
  O        21.6237705523        3.5952835548        9.3414792265
  O        27.4286840094       18.7458692549        21.487530319938
  O        26.6940648900       16.9262461824        22.650439325338
  O        30.6295803731       19.3492124629        8.0599637085
  O        33.5406257956       16.3286556337        21.648792994638
  O        34.2674676684       18.1802527877        22.735596184438
  O        29.5324205727       17.0090527613        22.568925588838
  O        33.5502203526       16.3381918788       10.4155774909
  O        34.2967353906       18.2376313428        9.4061552983
  O        31.6500667374       18.3105543103       10.1465003008
  O        30.2942474445       15.1096713161        8.0827780438
  O        28.5487262567       21.0275498658        22.826289519838
  O        28.5143190254       20.9509267490        9.4049369925
  O        27.4592768741       18.6788662648       10.6589915897
  O        26.6911157938       16.9269665000        9.4176049210
  O        13.1465843430       18.6939092206       10.5861498514
  O        13.9180704659       16.9160118569        9.4040998944
  O        50.5954066424       19.3502071741        8.0207762354
  O        47.6819908094       16.3273439583       10.4175415267
  O        46.9496129996       18.1754873032        9.3260608616
  O        11.0686200751       17.0160295775        9.4896222890
  O        47.6745477546       16.3359067247        21.642627985338
  O        46.9248455759       18.2357933801        22.652959019238
  O        49.5684698620       18.3177981882        21.972119338538
  O        10.3184783203       15.1002566751        7.9971208885
  O        52.6707281098       21.0280712892        9.2418283329
  O        12.1467819259       20.8913943252        22.663095315738
  O        13.1044444108       18.6142569146        21.316100372738
  O        13.9549867600       16.9862213030        22.655328700338
  O        29.9919751356       14.4379945756       10.7314581675
  O        28.0868511485       14.6499171138        9.4994704885
  O        32.0699233613       16.8560931804        8.0750214897
  O        30.9620660197       20.9502321426       10.4088211533
  O        32.9423397575       20.6009308644        9.3370361219
  O        29.5588261950       17.0687562146        9.5729793124
  O        30.8454173689       20.8812256509        21.650332658138
  O        32.8662980306       20.5812489271        22.656169492738
  O        31.6184052319       18.2473368311        21.973538519338
  O        28.2547859700       18.6274736548        8.0698344260
  O        32.4902177023       14.2135272896        9.3276600269
  O        32.4028136247       14.2167633221        22.810590626638
  O        29.9058990259       14.4383553680        21.413000277538
  O        28.0457341035       14.5804316620        22.726831144038
  O        17.8891386141        1.9664437256       10.6628287407
  O        18.9560966498        3.5270585739        9.4080806422
  O        39.1685398659       34.1385644180        7.9970862686
  O        43.2801309865       33.0588512574       10.3316399769
  O        42.0342865276       31.5064766305        9.2415629111
  O        20.3171963952        1.0361659902        9.4804163664
  O        43.2760767952       33.1824987923        21.564695189438
  O        42.0052075206       31.5841214384        22.572859242838
  O        40.5789446075       33.7748709966        21.925424834538
  O        22.3670028021        1.3842018196        7.9980315368
  O        36.6727476443       35.0996523098        9.2332665837
  O        16.4455897911        0.0641704946        22.658100922838
  O        17.9363928213        2.0432235406        21.316179874838
  O        18.9188191899        3.5931266566        22.655679351338
  O        29.6974841333       18.7591673932        20.074978379838
  O        29.8747268639       18.8981094098       12.0155001704
  O        31.1817698046       16.3417249886        20.073069186438
  O        31.2189884007       16.4228959904       12.0643999607
  O        30.4583453543       16.1184387295       14.5858740309
  O        29.3624358603       18.6181920958       14.5921768088
  O        39.4569418023       35.2438395240        19.991751224038
  O        19.1406551396        0.0042225778       11.9905923940
  O        41.9697522118       35.1729741836        20.076948769438
  O        21.6911745116       -0.0693816423       11.8958940635
  O        51.3646796854       18.6143395194        19.995059305038
  O        10.7508164359       18.7471824896       11.9050176377
  O        50.0790058042       16.4126757004        20.081538089938
  O         9.5238521134       16.4832111400       11.9912324695
 Zr         9.2960439458       16.0530444405        22.171905047338
 Zr        49.8353907584       16.0070430543        9.7467228887
 Zr        22.0731211497        0.0290431541        22.179028023438
 Zr        42.4606397840       35.1527456116        9.8008463083
 Zr        29.5645990523       19.0437004255        22.260570711538
 Zr        29.5676673538       19.1672058401        9.8567097399
 Zr        11.0369585875       19.0524796860        9.8277589677
 Zr        11.0427374590       19.1552558298        22.241236249638
 Zr        31.3266014467       16.0973346531        9.8708711173
 Zr        31.3620830431       16.0049231839        22.257939473038
 Zr        18.6006600467       -0.0023282046        9.7634884440
 Zr        18.5064372714       -0.0082190609        22.203150069438
 Zr        12.3003423291       16.3233883914        23.980449127538
 Zr        48.6149349532       18.8327308881        8.0103405418
 Zr        20.3141415985        2.4723890459        23.980394045738
 Zr        40.6426128692       32.6861638375        23.967843781538
 Zr        28.3212659202       16.3177461967        8.0850671485
 Zr        32.6099658338       18.8315030354        8.0564125655
  H        29.2791834967       17.9806319548        17.818556883138
  H        31.5650606166       17.0546010228        17.655765870338
