     569
 i =      234, E =     -4729.5321233321
  C        11.8587998510       14.0535079783        21.731439700138
  C        12.4563273109       12.8906694867        21.013058294538
  C        11.7046546863       12.1717975756        20.071332007238
  C        12.2810127547       11.1096059236        19.378957992638
  C        13.6215764689       10.7397622250        19.606708234538
  C        14.3547446319       11.4432906482        20.580212587838
  C        13.7818602166       12.5082463781        21.271754210138
  C        14.2610404280        9.6490632987        18.833310991938
  C        14.2562232172        9.6569151725        17.411611087138
  C        13.7430667129       10.7590320942        16.657687577538
  C        49.1268172113       21.2331481259        21.869460767838
  C        48.5501014656       22.4011031071        21.142449024038
  C        49.3000972358       23.0683106523        20.161338831038
  C        48.7331651825       24.1074346673        19.428124974038
  C        47.4026825761       24.5092402096        19.656846531938
  C        46.6717957826       23.8604856834        20.670495757738
  C        47.2342274605       22.8155948797        21.399876956238
  C        46.7724130090       25.5868994705        18.859546770438
  C        46.7614468585       25.5572921356        17.437781297838
  C        47.2614660384       24.4422533282        16.694261195738
  C        14.8600744788        8.5705299160        16.698345599638
  C        14.8917943192        8.5970954249        19.509958195238
  C        49.1132621183       21.2034262148       10.1453302036
  C        48.5279381082       22.3648406653       10.8723810938
  C        49.2671027002       23.0254270712       11.8654402385
  C        48.6907876994       24.0600005397       12.5968782446
  C        47.3604196808       24.4569015749       12.3585584606
  C        46.6401117605       23.8121725094       11.3348371699
  C        47.2136424762       22.7762512512       10.6030610594
  C        46.7219355454       25.5318219686       13.1496167124
  C        46.7336838099       25.5281469325       14.5713241296
  C        47.2491862540       24.4289652514       15.3277080746
  C        40.6183368361       17.0969910184       15.3178799435
  C        40.6326214867       17.1285421153       12.5075706182
  C        11.8829038612       14.0865072789       10.2854952930
  C        12.4720961720       12.9106438782       10.9896409288
  C        11.7145491176       12.1775503431       11.9158222942
  C        12.2810431452       11.0950377907       12.5842114464
  C        13.6198107150       10.7211426738       12.3523104343
  C        14.3577876358       11.4365704676       11.3914024281
  C        13.7924653081       12.5178107457       10.7187424010
  C        14.2533639388        9.6243774964       13.1227348279
  C        14.2521611895        9.6444246978       14.5445735819
  C        13.7424014123       10.7534315853       15.2916400565
  C        22.5083102611        3.2430485969        21.741865393738
  C        23.2164526525        4.3483629486        21.038031505538
  C        24.2103161540        4.0689551399        20.088739672838
  C        24.8315121910        5.1092782287        19.403261718438
  C        24.4734290217        6.4497670219        19.647631352638
  C        23.5072246832        6.7207694241        20.633289162638
  C        22.8815704486        5.6823366096        21.317265680738
  C        25.0758773084        7.5566383843        18.872035011038
  C        25.0520506132        7.5489750180        17.450844352438
  C        24.3518864656        6.5493119634        16.703458247738
  C        38.2980719168       31.9276840802        21.841836963738
  C        37.5568938210       30.8386923547        21.141152103238
  C        36.5924153835       31.1448882592        20.168550979638
  C        35.9628997264       30.1264043411        19.458060067538
  C        36.2823723903       28.7751915432        19.696649267338
  C        37.2157306256       28.4765067770        20.707343943038
  C        37.8493341815       29.4939416399        21.417220876238
  C        35.6732129183       27.6865616454        18.897584826338
  C        35.7148208507       27.7008694426        17.475941715938
  C        36.4298997916       28.7003866953        16.743303356738
  C        25.6771617787        8.6185864566        16.732723298038
  C        25.6693756529        8.6320509824        19.544479177438
  C        38.3307775117       31.9601361316       10.1609856794
  C        37.6159049274       30.8864732304       10.9112794689
  C        36.6840533270       31.1948204318       11.9145564497
  C        36.0760804634       30.1771280675       12.6478807644
  C        36.3844695019       28.8236812775       12.4028163294
  C        37.2973563507       28.5252927651       11.3723191358
  C        37.9072132845       29.5394868747       10.6400794372
  C        35.7701588841       27.7247480307       13.1848302036
  C        35.7640295823       27.7206530437       14.6075665899
  C        36.4519492347       28.7109573186       15.3769184502
  C        46.1355640147       26.6207105688       15.2814824517
  C        46.0878685338       26.5801353631       12.4735869264
  C        22.4599351479        3.2544847107       10.2555067397
  C        23.1534470426        4.3634912476       10.9759987674
  C        24.1579396001        4.0783558085       11.9141522721
  C        24.7847056854        5.1097113371       12.6085999332
  C        24.4259512582        6.4540776526       12.3866079898
  C        23.4449962926        6.7326609920       11.4165321098
  C        22.8136934445        5.7015667444       10.7224321304
  C        25.0537043056        7.5521522762       13.1612255191
  C        25.0411422749        7.5462069230       14.5833571882
  C        24.3444685484        6.5493676920       15.3369455246
  C        26.6092253981       17.8529159023        21.774573165138
  C        25.3023939762       17.8962738014        21.051112267438
  C        25.0354687115       18.9019498144        20.108696618138
  C        23.8241885139       18.9201221153        19.420451511738
  C        22.8417009898       17.9367787563        19.654107923738
  C        23.1035418804       16.9536629254        20.626977731838
  C        24.3179321417       16.9294517817        21.311845325838
  C        21.5704691518       17.9246829096        18.886601941738
  C        21.5748527738       17.9147711254        17.463957294538
  C        22.7830025662       17.7970240721        16.706746047738
  C        34.4392031440       17.1932494323        21.938748049538
  C        35.7259165580       17.1356264600        21.182966087638
  C        35.9201667009       16.1684828625        20.183912650038
  C        37.0970842226       16.1520895880        19.438958508138
  C        38.1136546480       17.0989948123        19.674389664438
  C        37.9203988813       18.0469424680        20.697719135438
  C        36.7404587605       18.0708327144        21.437831050338
  C        39.3677079033       17.1026710020        18.885338007138
  C        39.3629391607       17.1149781399        17.463301926438
  C        38.1559938679       17.2391348168        16.705924069538
  C        20.3304505732       17.9383719641        16.751736218738
  C        20.3441709189       17.9225058945        19.565609779538
  C        34.4224724726       17.2132597740       10.2214628113
  C        35.7305405272       17.1356001102       10.9348690445
  C        35.9496110230       16.1587829009       11.9177872263
  C        37.1451364602       16.1367206697       12.6309526406
  C        38.1501491938       17.0926269473       12.3838864815
  C        37.9370447131       18.0431926221       11.3679491877
  C        36.7409714727       18.0683670919       10.6551641472
  C        39.4017372980       17.1129973027       13.1738799309
  C        39.3805959344       17.1227864105       14.5955561492
  C        38.1641077802       17.2421934185       15.3393487454
  C        35.1230390567       26.6444262373       15.3076348439
  C        35.1861246513       26.6523443708       12.4977432692
  C        26.5870607024       17.7992148144       10.3309579185
  C        25.2736685593       17.8617407821       11.0389536781
  C        25.0128544517       18.8753316216       11.9733179341
  C        23.7930711722       18.9129488263       12.6444638978
  C        22.8045144376       17.9375052705       12.4038952855
  C        23.0600994583       16.9494261488       11.4358949452
  C        24.2798685784       16.9098252873       10.7635183654
  C        21.5381091625       17.9266246132       13.1736643716
  C        21.5581453976       17.9148689860       14.5952951157
  C        22.7745139032       17.7969417026       15.3404004944
  C        14.0487600025       17.8309298280       10.2872207582
  C        15.3559334490       17.8936671883       11.0081240604
  C        15.6129678145       18.9008501414       11.9516127675
  C        16.8235839352       18.9270882313       12.6417541274
  C        17.8123314366       17.9490513339       12.4111679094
  C        17.5605055224       16.9668148089       11.4345062615
  C        16.3492674952       16.9360194924       10.7458225292
  C        19.0811172241       17.9346159141       13.1819908735
  C        19.0762808302       17.9287517307       14.6047085395
  C        17.8671814447       17.8286046671       15.3626394929
  C        46.8024011283       17.2181316882       10.1588671652
  C        45.5101527880       17.1530732568       10.9031462959
  C        45.3029311764       16.1713301299       11.8847691178
  C        44.1198092165       16.1483373329       12.6191379543
  C        43.1122803332       17.1072957363       12.3954088361
  C        43.3166786889       18.0686216784       11.3868272230
  C        44.5005155068       18.0952837229       10.6530476406
  C        41.8581082919       17.1142505506       13.1849010792
  C        41.8645781198       17.1103353738       14.6074979006
  C        43.0737796526       17.2022597333       15.3663055487
  C        20.3211869975       17.9372813574       15.3167259872
  C        20.3076142577       17.9165337467       12.5035106580
  C        46.7837265190       17.2307376198        21.878066859538
  C        45.4795965643       17.1219890959        21.162359481938
  C        45.2611106979       16.1201394911        20.204298087238
  C        44.0722585158       16.0885459480        19.478978309038
  C        43.0710334873       17.0557008361        19.694007879738
  C        43.2801265830       18.0277032597        20.690387327938
  C        44.4701232625       18.0655845127        21.410868285438
  C        41.8233664488       17.0737468461        18.897327390838
  C        41.8469798269       17.0875649222        17.475872870338
  C        43.0654911287       17.1888825451        16.733066538838
  C        46.1533558147       26.6371336068        16.716035510038
  C        46.1623863046       26.6559846497        19.525681388438
  C        14.0441481208       17.8297278390        21.696790240938
  C        15.3626714692       17.8998487704        21.001860414538
  C        15.6375670614       18.9175853821        20.076306319438
  C        16.8654469255       18.9531598512        19.419470004438
  C        17.8455920780       17.9698406287        19.662168227938
  C        17.5767498831       16.9794384135        20.624335960338
  C        16.3511161128       16.9436444812        21.285065820538
  C        19.1137455808       17.9470024777        18.895134926638
  C        19.0934625497       17.9339031114        17.473475969438
  C        17.8755772938       17.8308628457        16.728817668438
  C        28.8065231023       14.0863165742       10.3946023916
  C        28.1936256063       12.9129202865       11.0784342352
  C        28.9165298112       12.1677273282       12.0214144515
  C        28.3151084377       11.0935183001       12.6714839289
  C        26.9774714918       10.7414071443       12.4015068565
  C        26.2765517911       11.4658193162       11.4209392427
  C        26.8754623078       12.5406048854       10.7696660945
  C        26.3061090350        9.6631259590       13.1613496985
  C        26.2900513335        9.6902660063       14.5819654413
  C        26.7940194317       10.8025737833       15.3280843904
  C        32.1803397076       21.2358825962       10.1489155073
  C        32.7775742183       22.4005416927       10.8695569466
  C        32.0235845317       23.0938433224       11.8292513639
  C        32.5938388203       24.1331462797       12.5582272333
  C        33.9349333076       24.5092934761       12.3492498809
  C        34.6723645758       23.8352776423       11.3574537479
  C        34.1040718496       22.7902907289       10.6303667072
  C        34.5608824341       25.5854192078       13.1529337692
  C        34.5358231770       25.5610880377       14.5749521438
  C        34.0135302864       24.4503483008       15.3103220096
  C        25.6764753200        8.6135491108       15.2988215693
  C        25.6708503330        8.6133254424       12.4861307454
  C        32.0733522172       21.1994119190        21.873104178938
  C        32.6430727030       22.3651207627        21.131693537838
  C        31.9091083260       23.0142386557        20.127032035038
  C        32.4820292778       24.0535686527        19.395434863938
  C        33.8032809617       24.4738608724        19.647721921738
  C        34.5179503724       23.8388006014        20.682004761438
  C        33.9502046760       22.7963529447        21.409375451638
  C        34.4457058442       25.5576129661        18.866002176838
  C        34.4757140768       25.5473690229        17.443443645438
  C        33.9836151169       24.4443242129        16.676842402938
  C        40.6089965746       17.0888863815        16.753005626338
  C        40.5926051408       17.0986191601        19.563268976838
  C        28.7336955801       14.0654614999        21.774997603238
  C        28.1160119714       12.9204190714        21.045611058038
  C        28.8527663859       12.2035551370        20.090266863838
  C        28.2659482203       11.1476958252        19.398645423438
  C        26.9268953649       10.7817565171        19.639080002238
  C        26.2069475833       11.4833661332        20.623760785338
  C        26.7921920057       12.5408671864        21.316909712638
  C        26.2830437752        9.6930052254        18.867706284838
  C        26.2796825360        9.7056154903        17.446369471338
  C        26.7870760084       10.8111210433        16.693791954938
  C        18.1352422719        3.1807916722       10.3172064542
  C        17.4058136814        4.2780128107       11.0158153119
  C        16.3900420922        3.9996202016       11.9432531501
  C        15.7422189245        5.0395831847       12.6066996675
  C        16.0941131379        6.3833076104       12.3670426161
  C        17.0835511460        6.6528778508       11.4033548480
  C        17.7327175459        5.6155456478       10.7383563256
  C        15.4697432090        7.4910084083       13.1300577989
  C        15.4851001296        7.4903967501       14.5517700382
  C        16.1866918333        6.4968018167       15.3049334542
  C        42.9457492650       31.8594254069       10.0728287613
  C        43.6461042625       30.7717205259       10.8168084299
  C        44.5916079543       31.0930603069       11.8028923401
  C        45.1973209835       30.0875225447       12.5505654871
  C        44.8708922269       28.7344624767       12.3357136772
  C        43.9450778011       28.4201036888       11.3224991204
  C        43.3362514818       29.4252414622       10.5744505062
  C        45.4885615235       27.6551870494       13.1388828399
  C        45.4927360373       27.6807807971       14.5605810915
  C        44.8055664201       28.6887625976       15.3072181663
  C        14.8561869919        8.5629271605       15.2641236236
  C        14.8744690570        8.5627708033       12.4514557173
  C        42.9463945188       31.9615013176        21.798799089938
  C        43.6915564504       30.8853298996        21.085241517638
  C        44.6563414017       31.1912179600        20.113127756038
  C        45.2778536750       30.1716269918        19.395387469838
  C        44.9539074717       28.8213284178        19.632881022538
  C        44.0202036450       28.5236662675        20.643448331038
  C        43.3919446948       29.5404464259        21.355626141138
  C        45.5630113219       27.7239385450        18.847638117738
  C        45.5332837926       27.7172253718        17.426338453738
  C        44.8268680012       28.7074015539        16.673403640838
  C        35.0950089234       26.6359925573        16.743026793538
  C        35.0564988557       26.6147185214        19.553357180438
  C        18.1484270393        3.2468916206        21.696308496838
  C        17.4298421130        4.3437346658        20.986957826738
  C        16.4145346975        4.0525008708        20.063497632638
  C        15.7662327717        5.0831742838        19.388147403438
  C        16.1210197885        6.4283888042        19.610783230338
  C        17.1125412896        6.7117218052        20.567902107238
  C        17.7601885400        5.6827805528        21.247650507638
  C        15.4905340709        7.5241176309        18.838366053338
  C        15.4963092685        7.5074350221        17.417231932938
  C        16.1930066902        6.5056861989        16.670536247138
  H        10.6725300309       12.4659365649        19.894311214238
  H        11.6947251495       10.5511366584        18.652409454738
  H        15.3917744883       11.1686821874        20.761936118538
  H        14.3513453289       13.0714107159        22.007220405638
  H        13.3761736726       11.6312229273        17.190969400638
  H        50.3227614782       22.7481883468        19.976502235638
  H        49.3196341141       24.6226235462        18.670483947338
  H        45.6423695313       24.1614071018        20.853794007038
  H        46.6632400897       22.2904971917        22.162088056538
  H        47.6300585035       23.5758819204        17.235916164438
  H        14.8722403117        8.5883800872        20.598267425038
  H        50.2871052964       22.7024960366       12.0604408903
  H        49.2691499136       24.5753566373       13.3604704451
  H        45.6107728779       24.1095594066       11.1456424843
  H        46.6528580867       22.2542630316        9.8313529929
  H        47.6080344435       23.5518705266       14.7968206232
  H        40.6373829801       17.0975578204       11.4196459703
  H        48.6870796515       14.0950477829        23.789714787538
  H        10.6811134186       12.4667162852       12.0932643425
  H        11.6892383821       10.5247038708       13.2969442169
  H        15.3931892405       11.1585934263       11.2054361633
  H        14.3648796933       13.0871345001        9.9902362636
  H        13.3756218280       11.6220595239       14.7529939701
  H        47.9300780523       14.2185012106        9.7109229323
  H        47.7800720636       14.3740808349        22.485088767438
  H        49.0831889185       18.5522479227       10.8671931323
  H        10.4160810762       14.1343995062        7.9988353184
  H        24.4734699807        3.0307092851        19.899227103838
  H        25.6032183312        4.8941007587        18.667366479438
  H        23.2242271941        7.7533140555        20.827017616538
  H        22.1132591311        5.8804083349        22.060564724338
  H        23.7891593492        5.7928276422        17.242636753338
  H        36.3610576748       32.1888814147        19.970836984938
  H        35.2161901664       30.3688818147        18.705076641638
  H        37.4703076452       27.4364071495        20.900471145038
  H        38.5956197860       29.2694336415        22.175696738238
  H        36.9922289875       29.4492760037        17.293335227238
  H        25.7012594238        8.6156295720        20.632374296938
  H        36.4552213191       32.2388200590       12.1165204924
  H        35.3469359227       30.4239005298       13.4164705959
  H        37.5498276823       27.4853972578       11.1756674257
  H        38.6324759294       29.3118891255        9.8626144194
  H        37.0320340786       29.4676204481       14.8563972482
  H        46.1092734933       26.5875798683       11.3855512338
  H        44.6681774475       35.1161788729        23.803821254438
  H        24.4374341655        3.0404710169       12.0803621927
  H        25.5671226921        4.8836564675       13.3298980271
  H        23.1578822346        7.7667949593       11.2374177249
  H        22.0399516156        5.9117370813        9.9876918976
  H        23.7756309974        5.7933533274       14.8035138627
  H        44.9536266596       34.3901161203        9.6949937837
  H        44.9018670634       34.2067844832        22.480522697338
  H        40.6659948121       33.2087506946       10.8531324016
  H        23.1499142182        1.9577482869        8.0046013351
  H        25.7878423884       19.6667773177        19.931072930638
  H        23.6230368814       19.7057414946        18.695251618238
  H        22.3566485356       16.1853107184        20.816242007438
  H        24.5313677490       16.1565941518        22.046619308638
  H        23.7224454970       17.6741639171        17.238152453738
  H        35.1331358213       15.4400620416        20.001126938238
  H        37.2456557698       15.3938843877        18.673075730838
  H        38.6955845205       18.7873726337        20.884225408738
  H        36.5761400671       18.8181724337        22.210767021738
  H        37.2177614400       17.3645677747        17.238555448938
  H        20.3479743726       17.9541327307        20.653750149738
  H        35.1644350882       15.4337747982       12.1193219233
  H        37.3137562534       15.3748902333       13.3889157191
  H        38.7056399490       18.7878120459       11.1712202256
  H        36.5566320844       18.8194691895        9.8906398863
  H        37.2318243475       17.3695784899       14.7967870392
  H        35.1708735587       26.6754540877       11.4097113013
  H        28.4929560440       21.0775157371        23.881754700438
  H        25.7770408136       19.6288163089       12.1517255965
  H        23.5903460158       19.7035088671       13.3638415084
  H        22.3054706964       16.1893633000       11.2440402320
  H        24.4921834715       16.1354542378       10.0302731408
  H        23.7075163307       17.6735128086       14.7986604345
  H        29.0237658711       21.7081993546        9.7323433573
  H        29.2066249948       21.6967872376        22.561710210338
  H        32.0600213543       18.5607876648       10.9996674768
  H        27.3700604148       19.0076887204        8.0727617885
  H        14.8531470372       19.6586174521       12.1294022956
  H        17.0179139489       19.7141078877       13.3672922973
  H        18.3129501850       16.2035870583       11.2466261583
  H        16.1441271802       16.1638115725       10.0081498844
  H        16.9258240885       17.7167138717       14.8325877244
  H        46.0863021097       15.4390839366       12.0658454863
  H        43.9616812959       15.3786007779       13.3713670698
  H        42.5481080358       18.8178404911       11.2083290454
  H        44.6727309667       18.8523706547        9.8915194171
  H        44.0154919645       17.3156687351       14.8368580070
  H        20.3047686159       17.9465065945       11.4153387585
  H        46.0387916639       15.3802010577        20.029173077638
  H        43.9069874414       15.3105894201        18.736743276638
  H        42.5129970271       18.7795777677        20.863597149838
  H        44.6514098989       18.8352581969        22.157124979938
  H        44.0008937849       17.2909504273        17.275628135038
  H        46.1991975549       26.6825373273        20.613127908638
  H        52.7412332690       21.0626699185        8.1947156771
  H        14.8795349517       19.6749921620        19.889263513238
  H        17.0786104923       19.7461087814        18.705824986938
  H        18.3248270524       16.2135813795        20.818618634838
  H        16.1283454534       16.1670393781        22.012695774438
  H        16.9404522176       17.7207870530        17.269709153238
  H        52.3225794612       21.6733087259        22.284029976238
  H        52.0133219466       21.7021537351        9.4956649404
  H        49.0674392512       18.6076299915        21.193921776238
  H        13.2476969101       19.0162856222        23.966427901038
  H        29.9467754454       12.4453073215       12.2318694278
  H        28.8757237998       10.5147679147       13.4023301989
  H        25.2429786542       11.2024391788       11.2059828363
  H        26.3323886768       13.1227093439       10.0292784000
  H        27.1609370052       11.6703516516       14.7882960458
  H        30.9922691641       22.7944381467       11.9985867360
  H        32.0027842275       24.6683534572       13.2982098673
  H        35.7103178529       24.1153049248       11.1893786151
  H        34.6797334756       22.2461818550        9.8850766823
  H        33.6596773625       23.5817788406       14.7622584267
  H        25.7034347050        8.5938425054       11.3982262601
  H        30.8937679640       22.6822508940        19.922042151538
  H        31.9043562426       24.5557633474        18.622429728938
  H        35.5404745524       24.1503182922        20.885147586938
  H        34.5100670043       22.2853417696        22.189030271538
  H        33.6066161371       23.5708017363        17.201162303738
  H        40.5870367768       17.0624445007        20.651022708038
  H        32.5112021622       14.1460044543        8.2575091117
  H        29.8883675937       12.4819095763        19.910035489738
  H        28.8433270673       10.5879553925        18.666049655238
  H        25.1708860503       11.2115517498        20.815073079038
  H        26.2342430014       13.0999601516        22.064317066638
  H        27.1468774000       11.6859725026        17.227518948538
  H        33.3005903629       14.2083577857        22.440323168538
  H        33.4066971810       14.3964976146        9.6098021428
  H        32.1092601474       18.5521706236        21.161846760638
  H        30.2040141242       14.1400041864        8.0860684704
  H        16.1180098580        2.9631023404       12.1296306117
  H        14.9527189980        4.8201659452       13.3222946466
  H        17.3659874492        7.6857603790       11.2102847775
  H        18.5147694412        5.8182114009       10.0105293473
  H        16.7531939877        5.7394308151       14.7714202745
  H        44.8278655526       32.1401507827       11.9770620381
  H        45.9371663299       30.3412906197       13.3065244227
  H        43.6823560057       27.3780379462       11.1524057344
  H        42.5996566261       29.1898992376        9.8097635657
  H        44.2301261161       29.4364678854       14.7689163945
  H        14.8506927531        8.5459678246       11.3632366214
  H        44.8999946248       32.2338936646        19.921788452038
  H        46.0248779111       30.4128427638        18.642262859438
  H        43.7630435043       27.4839568924        20.834855622538
  H        42.6452249554       29.3176623037        22.113861914038
  H        44.2682982329       29.4702305278        17.208009557938
  H        35.0068977759       26.6277171017        20.640560737438
  H        36.6051805653       35.1338986320        8.1806259253
  H        16.1433614287        3.0129335714        19.893845208638
  H        14.9738071414        4.8563641232        18.678162367838
  H        17.3961780537        7.7471706691        20.744694233138
  H        18.5431518894        5.8931839062        21.972332465738
  H        16.7644556780        5.7554598007        17.208977808338
  H        36.2786407138       34.4821566266        22.263117547338
  H        36.3806503580       34.2090390621        9.4996352981
  H        40.5787049767       33.2012896448        21.143947224738
  H        17.4705693391        1.9470728942        23.963773289138
  H        29.4484466468       19.5734891944       12.6354183308
  H        28.8779981534       19.1434471971        19.783639284638
  H        30.7573930537       15.3504963304        19.837528642038
  H        31.0815303001       15.5441447821       12.4692746535
  H        28.1986086872       18.3202533561       14.3617773033
  H        29.4034241129       15.8412378287       14.7827076372
  H        33.1325471697       17.1691076196        17.399534718738
  H        18.8530886491        0.8689597671       12.3350685606
  H        40.5281987826       35.2290152495        19.942000001538
  H        42.3231707799       34.4181966436        19.580606377938
  H        22.0875362340        0.6921498162       12.3514904140
  H        11.5969017882       18.7125883426       12.3825468843
  H        52.2650733864       18.4313917531        19.667291835538
  H        49.2552374397       16.4768341043        19.574271503338
  H        10.1496149423       15.7982186574       12.2928354094
  H        50.8502778490       17.6925299188        19.943931012338
  H        10.0457622783       17.3945430598       12.0519226944
  H        20.2143314518        0.0021394524       12.0420399292
  H        39.1836822203       36.1243855241        19.676213628438
 Ni        30.1427200511       17.4603852519        18.820316208938
 Ni        31.3665398582       16.3998118839       15.826422877538
 Ni        29.5976069650       17.9476813659        16.403868096238
 Ni        30.1388521515       17.4507269336       13.2421992706
  O        10.6499986329       14.3651663529        21.475670007138
  O        12.6132004173       14.6575693206        22.573743067138
  O        49.1477053795       16.8459256690        23.979507393438
  O        50.3502614079       20.9357837862        21.637920402338
  O        48.3485349205       20.5932452772        22.655759919538
  O        11.0518403973       17.0537179504        22.490521673138
  O        50.3210498631       20.8816108552       10.4068309839
  O        48.3467527499       20.5866954869        9.3271067145
  O        49.5435589537       18.2483842652       10.0682421477
  O        12.3591913225       18.6246437069        7.9998031450
  O        48.6932187235       14.1486395768        22.741049975238
  O         8.2098052697       14.2105149151        9.3226294501
  O        10.7353256773       14.5068577582       10.6643302804
  O        12.5718230598       14.5828646850        9.3285453996
  O        22.8440706842        2.0425289459        21.477276733838
  O        21.6041050456        3.5913459484        22.580452662238
  O        42.0579240222       34.1370250788        23.968754816638
  O        37.9812577936       33.1363971756        21.562210767238
  O        39.2174361650       31.5752617654        22.655774512238
  O        20.3081545010        1.0390456916        22.491634305838
  O        38.0241595778       33.1843661435       10.4159180116
  O        39.2184542195       31.5829538558        9.3274049615
  O        40.6521055739       33.7690371064       10.0602263903
  O        18.2554672495        1.3762049719        7.9967444361
  O        44.6222262092       35.1005149461        22.748576852038
  O        24.2054046658       -0.0000471298        9.3208063304
  O        22.7526921987        2.0570876478       10.5832152163
  O        21.6234798686        3.5949745479        9.3409252002
  O        27.4817614746       18.7497019985        21.492153261238
  O        26.7620543296       16.9253878875        22.641314140138
  O        30.6367718276       19.3493627593        8.0746332092
  O        33.5850663605       16.2688966252        21.720872256438
  O        34.2733606082       18.1778191297        22.735193414938
  O        29.5896701911       17.0106567941        22.572919244538
  O        33.5413973149       16.3267897919       10.4924670404
  O        34.2673515513       18.1799153701        9.4044435842
  O        31.6487569163       18.3113411944       10.1550916216
  O        30.2983732800       15.1061244501        8.0822340043
  O        28.5486977810       21.0287692787        22.830464863938
  O        28.5146385451       20.9458227365        9.4080449793
  O        27.4967439279       18.6213902352       10.6710328592
  O        26.6912304615       16.9166757132        9.4072012917
  O        13.1494307697       18.6930914256       10.5873485914
  O        13.9199899480       16.9164000548        9.4055360259
  O        50.5960065740       19.3501206775        8.0206708245
  O        47.6816334831       16.3274120998       10.4176156224
  O        46.9503232439       18.1757868488        9.3254190421
  O        11.0695969172       17.0156168194        9.4896131584
  O        47.6752950282       16.3358453345        21.642622397438
  O        46.9253079294       18.2357435577        22.653188854338
  O        49.5685773135       18.3176635557        21.972170242138
  O        10.3186863082       15.1002487610        7.9971306696
  O        52.6707528350       21.0278790299        9.2418289140
  O        12.1468241559       20.8911691825        22.663042478238
  O        13.1077409850       18.6136626008        21.315448008538
  O        13.9570215612       16.9868772599        22.655167123538
  O        29.9915927118       14.4380123202       10.7322364561
  O        28.0880422304       14.6505363257        9.4982190403
  O        32.0729015073       16.8532763768        8.0803424960
  O        30.9636443098       20.9501417431       10.4101019967
  O        32.9449490478       20.5976935416        9.3389998040
  O        29.5635460191       17.0689051652        9.5742591285
  O        30.8485220579       20.8838450518        21.652881393238
  O        32.8684471045       20.5816963496        22.658323268338
  O        31.6773311204       18.2418680266        21.974027923438
  O        28.2614365522       18.6232289898        8.0760865675
  O        32.4914500821       14.2130542484        9.3303908931
  O        32.4033910864       14.2088919783        22.813899038938
  O        29.9054623445       14.4377380233        21.412428909838
  O        28.0479152044       14.5791900258        22.726750975938
  O        17.8891038845        1.9664521967       10.6628365757
  O        18.9560510981        3.5270847904        9.4080723355
  O        39.1684955146       34.1386050873        7.9971093100
  O        43.2801816031       33.0588150375       10.3317068582
  O        42.0344011644       31.5063997384        9.2415807752
  O        20.3172155766        1.0362221092        9.4804376226
  O        43.2760833816       33.1824559752        21.564656533938
  O        42.0052370204       31.5840674785        22.572798882838
  O        40.5788429784       33.7747193137        21.925525410338
  O        22.3670387992        1.3842183656        7.9979145896
  O        36.6727603001       35.0996307983        9.2333172990
  O        16.4455658958        0.0641113858        22.658076810038
  O        17.9364218180        2.0432832572        21.316117990638
  O        18.9187624028        3.5931361923        22.655674421238
  O        29.6948454430       18.7700879455        20.160499942438
  O        29.8744232507       18.9095579789       12.0645336230
  O        31.2570925308       16.1795262616        19.984654872938
  O        31.2182655814       16.4174589733       12.0539090090
  O        32.6103814834       16.3485839415        17.325762677738
  O        30.2985111774       15.9735780867       14.4097604530
  O        29.1451889387       18.3901670380       14.5782119413
  O        39.4568454756       35.2437671029        19.991755328638
  O        19.1410460779        0.0044086949       11.9905864017
  O        41.9695077953       35.1726224906        20.076922781138
  O        21.6912414438       -0.0693735023       11.8959364684
  O        51.3651307539       18.6143364838        19.995226944138
  O        10.7511573304       18.7470754996       11.9048964549
  O        50.0796545367       16.4127646817        20.081570086638
  O         9.5239009871       16.4831696528       11.9911799875
 Zr         9.2972931042       16.0528274134        22.172182314238
 Zr        49.8363119461       16.0068721743        9.7464404949
 Zr        22.0731758844        0.0293676153        22.178948956338
 Zr        42.4607345681       35.1531888961        9.8008382048
 Zr        29.5846098895       19.0476613556        22.288034970338
 Zr        29.5693916419       19.1621821756        9.8806283444
 Zr        11.0383936997       19.0519462876        9.8278940922
 Zr        11.0440264431       19.1548083961        22.240988147938
 Zr        31.3288442791       16.0952835606        9.8822835535
 Zr        31.3918195375       15.9952658783        22.260825408438
 Zr        18.6008025482       -0.0020650735        9.7635256729
 Zr        18.5064207498       -0.0081481791        22.203160059738
 Zr        12.3025811604       16.3235490715        23.980462463338
 Zr        48.6162724206       18.8330854288        8.0102674491
 Zr        20.3142102612        2.4726189137        23.980307551038
 Zr        40.6427742081       32.6866098133        23.967890203038
 Zr        28.3438907610       16.3173153861        8.0814405856
 Zr        32.6116224626       18.8258610565        8.0633915080
  H        29.5878151145       16.7087172731        17.477219565738
  H        32.1472974657       16.2697096810        18.218883355138
  H        30.0706961732       18.6370701461       17.7582381804
