     569
 i =      184, E =     -4729.5480793414
  C        11.8587800052       14.0535275160        21.731368288038
  C        12.4563018329       12.8906111526        21.012994439438
  C        11.7045827880       12.1716471675        20.071390971438
  C        12.2809542506       11.1094448036        19.379022453738
  C        13.6215418283       10.7396945930        19.606725535838
  C        14.3547563973       11.4433367180        20.580097720538
  C        13.7818727649       12.5083150206        21.271607054738
  C        14.2610461583        9.6489967604        18.833353685938
  C        14.2564068652        9.6569153700        17.411655314138
  C        13.7433353186       10.7590865119        16.657752274538
  C        49.1267613433       21.2333078275        21.869512469338
  C        48.5499578715       22.4011961264        21.142412251138
  C        49.3000213835       23.0685562029        20.161463761938
  C        48.7330873469       24.1076707848        19.428237065738
  C        47.4025192138       24.5092688924        19.656789195538
  C        46.6715239599       23.8603601093        20.670255616838
  C        47.2339863979       22.8154830703        21.399646263838
  C        46.7722736950       25.5869484899        18.859495362838
  C        46.7613682571       25.5573899282        17.437730983638
  C        47.2614243140       24.4423594955        16.694225879638
  C        14.8602799345        8.5705267414        16.698412347938
  C        14.8916889703        8.5969857744        19.510019968738
  C        49.1132726548       21.2034996473       10.1453577467
  C        48.5279301701       22.3648968361       10.8724499788
  C        49.2671275854       23.0255860941       11.8654045451
  C        48.6907859584       24.0601491210       12.5968407343
  C        47.3603925268       24.4569689745       12.3585506028
  C        46.6400319950       23.8121228641       11.3349445029
  C        47.2136015458       22.7762184076       10.6031706882
  C        46.7218944652       25.5318923603       13.1495879389
  C        46.7336433834       25.5282449617       14.5712919376
  C        47.2491773880       24.4290771455       15.3276742451
  C        40.6275297827       17.1177447129       15.3219371011
  C        40.6399480656       17.1581883948       12.5117030295
  C        11.8829606101       14.0865346712       10.2854848975
  C        12.4722838957       12.9107309786       10.9897753514
  C        11.7147278581       12.1774740931       11.9157996314
  C        12.2812903539       11.0949952651       12.5842122315
  C        13.6201203904       10.7212940387       12.3524203943
  C        14.3581350261       11.4369162602       11.3916981968
  C        13.7927364155       12.5181198025       10.7190326161
  C        14.2536999056        9.6245034683       13.1228102260
  C        14.2525372719        9.6445272389       14.5446500708
  C        13.7427673748       10.7535364668       15.2917053653
  C        22.5117456990        3.2431104779        21.743241285338
  C        23.2285015059        4.3462978607        21.042886498438
  C        24.2234055752        4.0612048225        20.096166235838
  C        24.8541706722        5.0974968907        19.413120141038
  C        24.5055647534        6.4405704148        19.657309845138
  C        23.5384271033        6.7172693760        20.640633059638
  C        22.9028766125        5.6825621141        21.322013499638
  C        25.1176733120        7.5429528479        18.881719431738
  C        25.0925880930        7.5352555406        17.460482642338
  C        24.3803352084        6.5427936462        16.714760215638
  C        38.2973813924       31.9279405887        21.841289755638
  C        37.5547752471       30.8403838469        21.139521460438
  C        36.5885824260       31.1491457043        20.169251393538
  C        35.9565258849       30.1328297525        19.457765327638
  C        36.2749214445       28.7806432763        19.692425973438
  C        37.2103510447       28.4793419334        20.700649011538
  C        37.8462695005       29.4946143153        21.411853830838
  C        35.6641433927       27.6933511382        18.892103107538
  C        35.7051535021       27.7087040116        17.470223186538
  C        36.4152241983       28.7116182799        16.737565855938
  C        25.7263378079        8.5990581781        16.741037401838
  C        25.7177358701        8.6158367718        19.552551493938
  C        38.3301357451       31.9612152363       10.1596927969
  C        37.6125100029       30.8890754801       10.9079192462
  C        36.6783986380       31.1994681061       11.9084125345
  C        36.0675203338       30.1830207704       12.6406174188
  C        36.3760635133       28.8294641609       12.3971010370
  C        37.2908409611       28.5290614798       11.3689400973
  C        37.9032550040       29.5419386956       10.6374786211
  C        35.7617581197       27.7312660215       13.1789991113
  C        35.7547207950       27.7282820929       14.6015974154
  C        36.4372860779       28.7221563034       15.3710823527
  C        46.1355311203       26.6208200098       15.2814327070
  C        46.0877892729       26.5801668822       12.4735410992
  C        22.4596482191        3.2554372282       10.2573339430
  C        23.1521751158        4.3646433281       10.9809186021
  C        24.1555690189        4.0787580890       11.9201812492
  C        24.7828020131        5.1090664415       12.6161921019
  C        24.4265405572        6.4546155254       12.3954314501
  C        23.4456408649        6.7338970670       11.4251431086
  C        22.8138172498        5.7036216267       10.7295406750
  C        25.0607238321        7.5504505704       13.1693156370
  C        25.0637252634        7.5384634648       14.5919183700
  C        24.3648264380        6.5451041231       15.3483444908
  C        26.6077086696       17.8572912493        21.773850712138
  C        25.3019823603       17.9020353476        21.051084208038
  C        25.0386675977       18.9019208788        20.101242459438
  C        23.8276581824       18.9177638018        19.412465520338
  C        22.8425710769       17.9387685076        19.653445988438
  C        23.1009545736       16.9624411238        20.634208008538
  C        24.3147681451       16.9397544627        21.319273930238
  C        21.5711298279       17.9231736212        18.887021742538
  C        21.5736734075       17.9044431937        17.464491381438
  C        22.7803468513       17.7824123206        16.705566207938
  C        34.4377577501       17.1910611661        21.911783401238
  C        35.7331914219       17.1399791320        21.171608836038
  C        35.9374163971       16.1692350149        20.178466716038
  C        37.1177658014       16.1550118042        19.440809454438
  C        38.1260526061       17.1096151123        19.677114425538
  C        37.9250123058       18.0600841059        20.696010568038
  C        36.7413680054       18.0803490170        21.430475261338
  C        39.3793266203       17.1171467372        18.888810784338
  C        39.3733176266       17.1315116458        17.467138463738
  C        38.1650773231       17.2550863244        16.711910429438
  C        20.3279420820       17.9233387401        16.754568513838
  C        20.3459932131       17.9249296730        19.568118500938
  C        34.4214171810       17.2269537766       10.2521910294
  C        35.7314133683       17.1552333657       10.9600966049
  C        35.9699128800       16.1644068128       11.9248928895
  C        37.1683620995       16.1476337710       12.6319090885
  C        38.1578860394       17.1212590777       12.3943545790
  C        37.9277754021       18.0849545110       11.3950444244
  C        36.7279029314       18.1056701274       10.6889781209
  C        39.4109766822       17.1421603162       13.1801515723
  C        39.3894277033       17.1458366391       14.6013085248
  C        38.1727122179       17.2605733568       15.3453756701
  C        35.1189446971       26.6490589982       15.3013232593
  C        35.1807227644       26.6577896699       12.4915937116
  C        26.5723943481       17.8293820272       10.3224109603
  C        25.2560633750       17.8731242312       11.0271999338
  C        24.9904794469       18.8783483566       11.9691640983
  C        23.7737338131       18.9017497913       12.6450717342
  C        22.7923617521       17.9202738338       12.4012330341
  C        23.0510711457       16.9409859757       11.4252015286
  C        24.2691279768       16.9152776004       10.7484814437
  C        21.5288516855       17.9005853899       13.1744644366
  C        21.5516590751       17.8905350465       14.5960809928
  C        22.7694592716       17.7753851328       15.3391659410
  C        14.0467467276       17.8291066699       10.2882591747
  C        15.3515270336       17.8862367045       11.0122597859
  C        15.6088134831       18.8886926170       11.9604561727
  C        16.8181286939       18.9085258744       12.6526843793
  C        17.8042236130       17.9287975554       12.4187019636
  C        17.5519900947       16.9511546356       11.4377691936
  C        16.3421231850       16.9266129419       10.7472489038
  C        19.0727595040       17.9097680310       13.1881051490
  C        19.0701260331       17.9051816688       14.6104687882
  C        17.8622758561       17.8059150015       15.3703583737
  C        46.8038224138       17.2191015523       10.1589612337
  C        45.5129300550       17.1581288595       10.9042888709
  C        45.3042721529       16.1791614138       11.8881453622
  C        44.1220931057       16.1620971756       12.6237894388
  C        43.1182644042       17.1244680776       12.3984745475
  C        43.3240917211       18.0829161320       11.3877141153
  C        44.5067940173       18.1035380816       10.6526584100
  C        41.8655341437       17.1371650978       13.1884579305
  C        41.8730791705       17.1308230741       14.6107437888
  C        43.0830842820       17.2203997018       15.3686233685
  C        20.3162330022       17.9153512970       15.3198220358
  C        20.2974105278       17.8901946172       12.5068537188
  C        46.7860448945       17.2307708257        21.879395775538
  C        45.4832380264       17.1235219625        21.164255527738
  C        45.2663493330       16.1243407303        20.203458265838
  C        44.0786296122       16.0960970079        19.477016285138
  C        43.0791559953       17.0639447759        19.695062780838
  C        43.2863127792       18.0327758552        20.694573305338
  C        44.4751753798       18.0674690869        21.415928476638
  C        41.8331140848       17.0857825452        18.898733881038
  C        41.8568924044       17.1024309007        17.477925380738
  C        43.0753520139       17.2045662439        16.735226430038
  C        46.1532894442       26.6372309916        16.715978935038
  C        46.1621976652       26.6560001716        19.525623467938
  C        14.0444311466       17.8304951071        21.697873217338
  C        15.3639850013       17.9019929737        21.005466391638
  C        15.6377837252       18.9166452782        20.076261936238
  C        16.8660462855       18.9515357891        19.420207408038
  C        17.8475089218       17.9707827301        19.667756762438
  C        17.5803356522       16.9847115390        20.634740967438
  C        16.3542004229       16.9493204921        21.294366631638
  C        19.1146529269       17.9446252617        18.899542183838
  C        19.0921089111       17.9224002393        17.478152823838
  C        17.8729708264       17.8137401013        16.736379992138
  C        28.8041735491       14.0936848126       10.3930526056
  C        28.1918433370       12.9204397804       11.0840152618
  C        28.9497317122       12.1027500031       11.9373019162
  C        28.3485348173       11.0303166186       12.5944352036
  C        26.9815755040       10.7445126993       12.4095049146
  C        26.2430040995       11.5408506316       11.5167880350
  C        26.8384552336       12.6182827038       10.8657333651
  C        26.3208467190        9.6563590562       13.1682690929
  C        26.3327753648        9.6702684378       14.5883173231
  C        26.8688185018       10.7681622308       15.3331766050
  C        32.1847374135       21.2393447527       10.1386100449
  C        32.7810721881       22.4044316434       10.8582029286
  C        32.0327130802       23.0807188646       11.8344428075
  C        32.6018499719       24.1192413052       12.5650449248
  C        33.9359717786       24.5117662823       12.3416686010
  C        34.6667623772       23.8548996963       11.3332458691
  C        34.0999147898       22.8104862754       10.6042323559
  C        34.5603675493       25.5877834615       13.1462274720
  C        34.5386056007       25.5619944758       14.5683891476
  C        34.0289034938       24.4455377407       15.3034379410
  C        25.7155508523        8.5968315915       15.3068283006
  C        25.6706107961        8.6163565936       12.4931502703
  C        32.0904448918       21.1715370178        21.828523138938
  C        32.6528803535       22.3448874171        21.096919762738
  C        31.9260416481       22.9792579706        20.077773327838
  C        32.4930972589       24.0304683899        19.359406113538
  C        33.8022289673       24.4735446206        19.635866190438
  C        34.5083208242       23.8526932189        20.684595934438
  C        33.9452997195       22.8012995599        21.402046466538
  C        34.4426906941       25.5606868433        18.858647382638
  C        34.4778915481       25.5484800174        17.436171877938
  C        33.9993764225       24.4393783254        16.669759220438
  C        40.6187395085       17.1063421280        16.756321134938
  C        40.6036132497       17.1112908313        19.566077028638
  C        28.7388424279       14.0605318107        21.808387360838
  C        28.1373724006       12.9090052418        21.073747978738
  C        28.8909389867       12.1920848857        20.131647219938
  C        28.3175954542       11.1332221957        19.431911846538
  C        26.9755715604       10.7643503836        19.651005769538
  C        26.2386095126       11.4672289780        20.622472862238
  C        26.8101262835       12.5272487568        21.323498478338
  C        26.3403550785        9.6719792134        18.875531985338
  C        26.3427567911        9.6798746281        17.453725533838
  C        26.8698791767       10.7750312499        16.699141096638
  C        18.1352955071        3.1808091080       10.3171161261
  C        17.4058876258        4.2780509513       11.0156741840
  C        16.3904624110        3.9996384466       11.9434946708
  C        15.7426826151        5.0395948371       12.6069890565
  C        16.0942470840        6.3833616862       12.3670334095
  C        17.0832507865        6.6529184298       11.4028774638
  C        17.7323702860        5.6156053401       10.7378155884
  C        15.4699846214        7.4910714719       13.1301004779
  C        15.4853495039        7.4904232095       14.5518179562
  C        16.1868388304        6.4967747481       15.3050116628
  C        42.9457061281       31.8593994404       10.0727930871
  C        43.6460269039       30.7717509856       10.8167607046
  C        44.5915605278       31.0930753963       11.8028351812
  C        45.1972556041       30.0875380958       12.5505025486
  C        44.8708165522       28.7344753702       12.3356489783
  C        43.9449515492       28.4201288073       11.3224766503
  C        43.3361376689       29.4252655500       10.5744252067
  C        45.4884800852       27.6552188302       13.1388312332
  C        45.4926840692       27.6808699547       14.5605237804
  C        44.8054737019       28.6888324377       15.3071486889
  C        14.8564836013        8.5629745829       15.2641874888
  C        14.8747449593        8.5628799260       12.4515164744
  C        42.9463565609       31.9614285125        21.798736379538
  C        43.6915105977       30.8853313606        21.085237049938
  C        44.6563095739       31.1912238649        20.113121646938
  C        45.2777886231       30.1716348692        19.395377696238
  C        44.9537685360       28.8213352927        19.632808477238
  C        44.0200037311       28.5236738696        20.643321522538
  C        43.3917614878       29.5404441674        21.355510316938
  C        45.5628611115       27.7239631880        18.847561309038
  C        45.5332080282       27.7173186664        17.426267697038
  C        44.8267627543       28.7074727940        16.673334378438
  C        35.0906806738       26.6409316910        16.736669446538
  C        35.0482808916       26.6204124766        19.546861620738
  C        18.1484536446        3.2468656599        21.696421477038
  C        17.4297788796        4.3437197346        20.987212595438
  C        16.4147185239        4.0524153602        20.063487175238
  C        15.7663935375        5.0830369580        19.388084493438
  C        16.1208932041        6.4282966729        19.610941587438
  C        17.1120488852        6.7117031675        20.568429929238
  C        17.7597164486        5.6828069018        21.248218354938
  C        15.4904772603        7.5240087303        18.838459460638
  C        15.4963978696        7.5073758982        17.417323052038
  C        16.1930750676        6.5056186480        16.670618120538
  H        10.6724309607       12.4657465768        19.894440107338
  H        11.6946461968       10.5509030851        18.652542727538
  H        15.3918212825       11.1688156247        20.761736812338
  H        14.3513668929       13.0716436045        22.006938776338
  H        13.3763971944       11.6312397918        17.191070627738
  H        50.3227544324       22.7485699796        19.976779425438
  H        49.3196050462       24.6229700342        18.670708273938
  H        45.6420012294       24.1610809146        20.853361228238
  H        46.6629384800       22.2902379691        22.161712944938
  H        47.6300144064       23.5759972291        17.235899515438
  H        14.8719576226        8.5882321536        20.598324453338
  H        50.2871522466       22.7027069643       12.0603708183
  H        49.2691645133       24.5755810593       13.3603689986
  H        45.6106560398       24.1094278931       11.1458101787
  H        46.6528054996       22.2541368346        9.8315321982
  H        47.6080335511       23.5519870729       14.7967846710
  H        40.6433897272       17.1307423457       11.4236805915
  H        48.6871389303       14.0949786433        23.789770344638
  H        10.6812401209       12.4665245823       12.0931432759
  H        11.6894751111       10.5245402194       13.2968439727
  H        15.3935989059       11.1591003399       11.2058479487
  H        14.3651338577       13.0876105061        9.9906428375
  H        13.3760065545       11.6221653380       14.7530432118
  H        47.9300892220       14.2186359681        9.7108945031
  H        47.7801585370       14.3741116656        22.485172965938
  H        49.0835880432       18.5524354888       10.8674468302
  H        10.4161136310       14.1343482954        7.9988303705
  H        24.4797175947        3.0213072445        19.906320112438
  H        25.6260120288        4.8767759236        18.678980101138
  H        23.2621039179        7.7515516348        20.834840474938
  H        22.1339021615        5.8860284737        22.063263592338
  H        23.8136714008        5.7905258014        17.255727561238
  H        36.3575910900       32.1936847332        19.974052824938
  H        35.2083298565       30.3780047224        18.707123447338
  H        37.4645727825       27.4386292102        20.890954287738
  H        38.5936749971       29.2673180896        22.168421767138
  H        36.9739487482       29.4633817836        17.287334693038
  H        25.7454495661        8.6026473183        20.640607872238
  H        36.4503304155       32.2438877368       12.1089134038
  H        35.3363646475       30.4305615826       13.4070241296
  H        37.5427141858       27.4886863492       11.1741658829
  H        38.6300712635       29.3135048941        9.8617361687
  H        37.0138703179       29.4816496045       14.8508500926
  H        46.1091490948       26.5875489428       11.3855038091
  H        44.6681159379       35.1160202129        23.803718064938
  H        24.4346378936        3.0406641632       12.0859619662
  H        25.5648516514        4.8808518318       13.3372164476
  H        23.1586633383        7.7681072125       11.2460627866
  H        22.0406928475        5.9157161176        9.9946348725
  H        23.7856002963        5.7953469113       14.8172269806
  H        44.9532722772       34.3899731381        9.6949670563
  H        44.9014683570       34.2065942395        22.480454038938
  H        40.6657155152       33.2086354445       10.8529465364
  H        23.1504962854        1.9572646834        8.0053786622
  H        25.7926794466       19.6639908718        19.917862333038
  H        23.6290723150       19.6982931890        18.681105015438
  H        22.3515394543       16.1979927296        20.829105759038
  H        24.5257809634       16.1718997445        22.059935082638
  H        23.7210548802       17.6628177429        17.235391380638
  H        35.1523752953       15.4395162350        19.994100350538
  H        37.2751591153       15.3954406205        18.678121247638
  H        38.6954539215       18.8055320697        20.882077742438
  H        36.5689141893       18.8297998857        22.199495097538
  H        37.2267479057       17.3786661763        17.245061288838
  H        20.3515193066       17.9635870637        20.656024839838
  H        35.2022385697       15.4181070124       12.1148801009
  H        37.3522124161       15.3766509861       13.3769518608
  H        38.6860872811       18.8421000672       11.2064255050
  H        36.5293116557       18.8654847050        9.9367354296
  H        37.2395571353       17.3876045037       14.8042561574
  H        35.1641761787       26.6823151454       11.4036255259
  H        28.5091855890       21.0854924054        23.866397246638
  H        25.7511292287       19.6338690223       12.1524569408
  H        23.5679862623       19.6852061650       13.3712685640
  H        22.3008399182       16.1773835094       11.2301554903
  H        24.4845034364       16.1479880997       10.0086928626
  H        23.7017140759       17.6504915918       14.7963096170
  H        29.0015307035       21.7276219613        9.7435054842
  H        29.1679675896       21.7355981626        22.537544499038
  H        32.0651083637       18.6354950883       10.9065245288
  H        27.4026614325       19.0693649191        8.0776237264
  H        14.8505505744       19.6476366954       12.1398159701
  H        17.0140402568       19.6918328289       13.3817754614
  H        18.3031763541       16.1871880606       11.2479739550
  H        16.1355426716       16.1583682977       10.0059228164
  H        16.9203154697       17.6908293504       14.8420197522
  H        46.0856237135       15.4448735026       12.0696651501
  H        43.9615476557       15.3949032621       13.3780797102
  H        42.5578620144       18.8344337058       11.2089174871
  H        44.6814800575       18.8581421059        9.8892960739
  H        44.0244361219       17.3344599803       14.8387160440
  H        20.2923495223       17.9212991845       11.4187534226
  H        46.0442542958       15.3849075488        20.027435829538
  H        43.9124696446       15.3211039877        18.731928285838
  H        42.5189446978       18.7841585457        20.868663283338
  H        44.6573730700       18.8343304736        22.164771517038
  H        44.0109009365       17.3055342495        17.277765901038
  H        46.1989248874       26.6824930951        20.613074497538
  H        52.7412791636       21.0626972213        8.1947182248
  H        14.8783835343       19.6716980642        19.885315336838
  H        17.0782765126       19.7413735590        18.702846464238
  H        18.3298624719       16.2213140618        20.833020371738
  H        16.1321177761       16.1755162787        22.025151682938
  H        16.9390432702       17.7047000329        17.279501912238
  H        52.3227428826       21.6734499291        22.284032717938
  H        52.0135172978       21.7023154250        9.4956879719
  H        49.0676194095       18.6079304104        21.193955383538
  H        13.2476041103       19.0161319913        23.966928533738
  H        30.0121996342       12.3068381520       12.0587742917
  H        28.9353696823       10.3972262553       13.2568183348
  H        25.1860408349       11.3284065722       11.3695451380
  H        26.2682124592       13.2544462147       10.1930847941
  H        27.2515259508       11.6281469010       14.7916812773
  H        31.0079882515       22.7666869656       12.0169233347
  H        32.0149748100       24.6407050292       13.3179917395
  H        35.6991979931       24.1477097376       11.1533907119
  H        34.6711219212       22.2797952511        9.8459433150
  H        33.6859666731       23.5720561341       14.7562123439
  H        25.6842548325        8.6077760376       11.4046923686
  H        30.9225994022       22.6257432493        19.850822441038
  H        31.9208581975       24.5225266041        18.576014045938
  H        35.5216228267       24.1813678341        20.905946692838
  H        34.4986094761       22.3015911961        22.193540423138
  H        33.6343744430       23.5603709173        17.193203609938
  H        40.5985456908       17.0733343155        20.653726017238
  H        32.5156316126       14.1532797731        8.2301240955
  H        29.9282647288       12.4743845781        19.966999111038
  H        28.9090994280       10.5734033465        18.710646149038
  H        25.2000687709       11.1939007688        20.797471797038
  H        26.2385202642       13.0865014241        22.060460428538
  H        27.2514599333       11.6411239825        17.232077495838
  H        33.3026474164       14.2193990130        22.442315858138
  H        33.4076297489       14.3630354757        9.6142752594
  H        32.1149295124       18.4908573672        21.087318089338
  H        30.1995212661       14.1479076101        8.0824578546
  H        16.1186430589        2.9631079949       12.1301229173
  H        14.9534156655        4.8201317479       13.3228296931
  H        17.3652863316        7.6858386857       11.2094286860
  H        18.5140161058        5.8182811148       10.0095601138
  H        16.7532712253        5.7393311545       14.7715282424
  H        44.8278391918       32.1401561747       11.9770102809
  H        45.9371083909       30.3412702325       13.3064637957
  H        43.6821812089       27.3780704260       11.1524138657
  H        42.5994976152       29.1898914697        9.8097898168
  H        44.2299445458       29.4364723833       14.7688526022
  H        14.8508683115        8.5460776946       11.3632977611
  H        44.9000343268       32.2338894172        19.921836770138
  H        46.0248310587       30.4128074037        18.642259815238
  H        43.7627316734       27.4839733621        20.834632891638
  H        42.6449915590       29.3176254495        22.113685765438
  H        44.2680944950       29.4702376684        17.207929767838
  H        34.9962529175       26.6338867169        20.633951478738
  H        36.6049854572       35.1339614598        8.1806640348
  H        16.1437410108        3.0128235470        19.893653371938
  H        14.9741514569        4.8561455141        18.677917615938
  H        17.3953356967        7.7471975842        20.745505216838
  H        18.5423883229        5.8932618877        21.973194155338
  H        16.7643836874        5.7552843945        17.209057024438
  H        36.2782785331       34.4824476013        22.263052225838
  H        36.3802191557       34.2093055647        9.4997712535
  H        40.5783626684       33.2010648735        21.144026365738
  H        17.4706794107        1.9467533808        23.963841555038
  H        29.3113960142       19.5842332736       12.5392620230
  H        28.7232739168       18.7695933604        19.782779711538
  H        30.8125140872       15.4579730729        19.728670572438
  H        32.2355995359       16.5428733250       12.3256364891
  H        28.5319040745       18.2756340682       14.7275199248
  H        29.7932804253       14.0506247891       13.5830797246
  H        32.2560252404       16.9014485029        17.356037648338
  H        18.8533851503        0.8690754828       12.3352230737
  H        40.5278866684       35.2291627000        19.942019570338
  H        42.3226874462       34.4176013232        19.581112025838
  H        22.0879592024        0.6921363746       12.3513273484
  H        11.5969832498       18.7129512736       12.3825431203
  H        52.2653693604       18.4312819458        19.667440043438
  H        49.2553297014       16.4772045374        19.574319674938
  H        10.1506957403       15.7981599872       12.2923884543
  H        50.8504851856       17.6925506736        19.944005337038
  H        10.0463447270       17.3945800694       12.0519364838
  H        20.2146335327        0.0023261579       12.0420381576
  H        39.1833657124       36.1242316049        19.676107854238
 Ni        30.4798121279       17.6008899018        18.740576129538
 Ni        30.7301802278       15.9804726304       14.984477904938
 Ni        30.3962051934       17.8468315929        16.155616226038
 Ni        30.3092479908       17.5938702149       13.2479416610
  O        10.6499749665       14.3650756152        21.475602646938
  O        12.6131917008       14.6574743115        22.573684603338
  O        49.1478803525       16.8459178541        23.979571368938
  O        50.3501990217       20.9360302446        21.637955245438
  O        48.3485283673       20.5933028702        22.655734984238
  O        11.0517050679       17.0539408238        22.490495461038
  O        50.3210361604       20.8816663587       10.4068667997
  O        48.3467455668       20.5867861635        9.3271726547
  O        49.5435633424       18.2483768135       10.0683498573
  O        12.3590027537       18.6246652461        7.9997540348
  O        48.6932667371       14.1485356196        22.741103446038
  O         8.2098290936       14.2104895313        9.3226387244
  O        10.7353715926       14.5067516865       10.6643541862
  O        12.5718339494       14.5827928236        9.3285295069
  O        22.8442861769        2.0421322165        21.477186950238
  O        21.6055833994        3.5922810077        22.579245346638
  O        42.0578635019       34.1369529528        23.968731506338
  O        37.9814308175       33.1372416289        21.562233247538
  O        39.2168727821       31.5750471967        22.655151874238
  O        20.3082258605        1.0391820482        22.491729306038
  O        38.0246841026       33.1855859631       10.4153886187
  O        39.2185821150       31.5832943151        9.3271972271
  O        40.6521308772       33.7691034848       10.0601585823
  O        18.2554905885        1.3757588906        7.9967711427
  O        44.6222501685       35.1004739477        22.748523079938
  O        24.2053375295        0.0000190406        9.3208513657
  O        22.7528943157        2.0578585106       10.5837330411
  O        21.6240872202        3.5959212995        9.3420204203
  O        27.4849566537       18.7504951283        21.485457907838
  O        26.7589856733       16.9339780469        22.643522147238
  O        30.6641836020       19.4053562446        8.0054847442
  O        33.5851079662       16.2751466771        21.657360689838
  O        34.2718142374       18.1667319806        22.727480585638
  O        29.5743820208       17.0445402231        22.579295132838
  O        33.5353829154       16.3430116466       10.5681795442
  O        34.2665494582       18.1677834468        9.4107129765
  O        31.6498789677       18.3208457012       10.0869428090
  O        30.2959934284       15.1135915269        8.0825501422
  O        28.5545477146       21.0329736480        22.818472148638
  O        28.5146193062       20.9575857236        9.4038617072
  O        27.4571446083       18.6800000561       10.6553653695
  O        26.6948588900       16.9276177877        9.4112703367
  O        13.1487105159       18.6929250880       10.5873556405
  O        13.9191634867       16.9161579187        9.4048250600
  O        50.5961885450       19.3502429694        8.0206447878
  O        47.6819812361       16.3273437034       10.4175539454
  O        46.9512853480       18.1760127731        9.3247825873
  O        11.0695886450       17.0156346964        9.4896598926
  O        47.6767039710       16.3354660788        21.643153822138
  O        46.9272532477       18.2357333489        22.654322568338
  O        49.5687480012       18.3177302511        21.972123405838
  O        10.3187106180       15.1001840902        7.9971118858
  O        52.6707796825       21.0278994195        9.2418311095
  O        12.1468479930       20.8912411360        22.663051950238
  O        13.1078114650       18.6136923583        21.315531429138
  O        13.9566870961       16.9868295138        22.655466337738
  O        29.9894744324       14.4451361667       10.7345633142
  O        28.0863503044       14.6518036705        9.4973927079
  O        32.0762267940       16.8545080275        8.0697523046
  O        30.9688378642       20.9536493389       10.4023469530
  O        32.9506387556       20.5946033400        9.3337311469
  O        29.5630785985       17.0721523903        9.5777905639
  O        30.8840585364       20.8196026290        21.567149363738
  O        32.8708764977       20.5853564426        22.651840684838
  O        31.6776199157       18.2380079950        21.917230226938
  O        28.2900552651       18.6751901731        8.0665857193
  O        32.4903612163       14.2157549179        9.3232140214
  O        32.4058658279       14.2130129416        22.817209474838
  O        29.9140994502       14.4331102439        21.475993717738
  O        28.0358748001       14.5861090803        22.738469264038
  O        17.8891709193        1.9665369567       10.6628241114
  O        18.9561880131        3.5270630883        9.4079698347
  O        39.1686164962       34.1386090400        7.9971150812
  O        43.2801530407       33.0588692698       10.3316445361
  O        42.0343620791       31.5064600060        9.2415362409
  O        20.3174651100        1.0364738044        9.4802938458
  O        43.2760844594       33.1824852808        21.564693624438
  O        42.0052157606       31.5840705077        22.572790797138
  O        40.5788465344       33.7746862143        21.925477413038
  O        22.3671207215        1.3844380301        7.9979471395
  O        36.6727433444       35.0997107507        9.2332958910
  O        16.4455054567        0.0641868786        22.658076806838
  O        17.9364691655        2.0433266134        21.316155364438
  O        18.9190162885        3.5930781236        22.655722341338
  O        29.6513849357       18.6878799058        20.069115451438
  O        29.8288001470       18.9739978083       11.9842976232
  O        31.2197076273       16.2726628035        20.076917104938
  O        31.3015534604       16.4091551343       12.0739294935
  O        31.3008992528       16.7001283858        17.314031350438
  O        30.6751437566       14.4344910552       13.7439529947
  O        29.4472857577       18.6064134988       14.6589804032
  O        39.4567330609       35.2437202164        19.991758043738
  O        19.1414555107        0.0046527944       11.9905471862
  O        41.9696865663       35.1726851535        20.076925052238
  O        21.6914193296       -0.0692651409       11.8958129752
  O        51.3654078941       18.6143546808        19.995241809238
  O        10.7512001166       18.7471346352       11.9049566927
  O        50.0797839751       16.4127502591        20.081504743038
  O         9.5246940342       16.4830460624       11.9912050602
 Zr         9.2973828197       16.0527846843        22.172226245038
 Zr        49.8363934874       16.0068919333        9.7464151852
 Zr        22.0729275920        0.0289228953        22.178947084038
 Zr        42.4605529526       35.1527723577        9.8006614038
 Zr        29.6014672307       19.0605869972        22.225560285038
 Zr        29.5751671593       19.1888852543        9.8394052148
 Zr        11.0382880680       19.0520590165        9.8278552036
 Zr        11.0440967226       19.1549702923        22.240866889938
 Zr        31.3323634158       16.0996118875        9.8373790677
 Zr        31.3731846585       16.0016009029        22.234745303938
 Zr        18.6006830103       -0.0021345132        9.7635221529
 Zr        18.5061398322       -0.0084532058        22.203224053238
 Zr        12.3022648218       16.3236407758        23.980255053238
 Zr        48.6168179685       18.8332966441        8.0103869167
 Zr        20.3144093041        2.4725026615        23.980192474338
 Zr        40.6424456983       32.6861152118        23.967698628038
 Zr        28.3392573521       16.3389140305        8.0805947318
 Zr        32.6132909065       18.8383404044        8.0290809750
  H        29.7563126825       18.4917466205        17.577024644538
  H        30.8665434807       14.9869594672       12.9157660380
  H        31.4263324916       17.3470771646       14.7876488776
