     576
 i =      172, E =     -4780.0611330919
  C        11.8586663980       14.0534124867        21.731396920838
  C        12.4560266386       12.8903624678        21.013299660638
  C        11.7044179949       12.1717747037        20.071286323638
  C        12.2807227996       11.1095653454        19.378903260138
  C        13.6211479851       10.7393504297        19.606936240438
  C        14.3541549322       11.4424890191        20.580858609638
  C        13.7813474427       12.5074699776        21.272423973238
  C        14.2606687041        9.6487484111        18.833453749038
  C        14.2559424876        9.6566958177        17.411747624338
  C        13.7427522679       10.7587957011        16.657824795238
  C        49.1267341761       21.2333163798        21.869434348938
  C        48.5499816642       22.4012014357        21.142398219238
  C        49.2999751505       23.0684961996        20.161343459638
  C        48.7330243237       24.1076133507        19.428145810438
  C        47.4025095130       24.5093135556        19.656852584338
  C        46.6716178105       23.8604997479        20.670452833438
  C        47.2340731151       22.8155957203        21.399789127138
  C        46.7722320784       25.5869647541        18.859566284138
  C        46.7611678447       25.5572740523        17.437811448738
  C        47.2610321915       24.4421396893        16.694330801438
  C        14.8599477167        8.5704114385        16.698450985738
  C        14.8915637225        8.5968306820        19.510065513438
  C        49.1130400684       21.2034510182       10.1453250043
  C        48.5276719026       22.3647775422       10.8724496047
  C        49.2667895399       23.0253510967       11.8655507303
  C        48.6904170961       24.0598624894       12.5970253266
  C        47.3600584811       24.4567567514       12.3586496001
  C        46.6397685564       23.8119841427       11.3349466787
  C        47.2133545440       22.7761200361       10.6031398081
  C        46.7215762682       25.5316908379       13.1496781538
  C        46.7333005628       25.5280190554       14.5713800765
  C        47.2487038851       24.4287989725       15.3277780032
  C        40.6318882435       17.1237945547       15.3288077735
  C        40.6606941618       17.1633302177       12.5199002824
  C        11.8829561879       14.0864065873       10.2853993203
  C        12.4721460896       12.9105354758       10.9894827668
  C        11.7147864231       12.1778321550       11.9161366807
  C        12.2812811782       11.0953725395       12.5845968027
  C        13.6198812123       10.7210699345       12.3523218942
  C        14.3575946178       11.4359992415       11.3908161093
  C        13.7922543936       12.5171604966       10.7180511116
  C        14.2534831687        9.6243984143       13.1228123747
  C        14.2521293400        9.6443805146       14.5446606036
  C        13.7422331488       10.7532907397       15.2917779735
  C        22.5129905822        3.2445402687        21.743872038838
  C        23.2301222263        4.3493153340        21.046846733938
  C        24.2292447300        4.0683854633        20.103130217438
  C        24.8586070687        5.1072931957        19.422505170538
  C        24.5045986820        6.4494333474        19.665151185738
  C        23.5340660302        6.7219233678        20.646428201938
  C        22.9001160940        5.6848001860        21.325678392238
  C        25.1116621145        7.5545302039        18.888753487138
  C        25.0848909559        7.5445964844        17.467354786338
  C        24.3806153672        6.5451725884        16.723452087938
  C        38.2983984700       31.9280897408        21.841663524238
  C        37.5566674651       30.8398707731        21.139856469838
  C        36.5876571920       31.1483915111        20.172578596738
  C        35.9556003442       30.1317875740        19.461822518538
  C        36.2774078570       28.7800894153        19.694367427138
  C        37.2165289062       28.4788336330        20.698929851038
  C        37.8522111953       29.4945635801        21.409578287338
  C        35.6630052632       27.6946118619        18.895210856138
  C        35.6925149368       27.7159021294        17.473282056538
  C        36.4058160890       28.7163883365        16.740181715238
  C        25.7097903275        8.6120517440        16.745448846138
  C        25.7086035460        8.6305953733        19.557629002638
  C        38.3296369089       31.9617492222       10.1598355378
  C        37.6086497069       30.8918293083       10.9094792761
  C        36.6756870011       31.2078240233       11.9093570487
  C        36.0590904998       30.1954902329       12.6425211316
  C        36.3602031571       28.8401377334       12.4002209006
  C        37.2746446526       28.5339918500       11.3734548573
  C        37.8931659053       29.5430572044       10.6412754766
  C        35.7371863624       27.7463921961       13.1821813430
  C        35.7307025716       27.7422380836       14.6047615465
  C        36.4232447483       28.7295065533       15.3737945081
  C        46.1353027983       26.6206647435       15.2815102030
  C        46.0876523081       26.5800676730       12.4736177875
  C        22.4608365618        3.2551030931       10.2581936053
  C        23.1551523289        4.3615744790       10.9829331234
  C        24.1544642207        4.0717349465       11.9256301422
  C        24.7835368244        5.0992510534       12.6240987180
  C        24.4336632956        6.4461764562       12.4020631664
  C        23.4573135435        6.7291735792       11.4280769462
  C        22.8233421357        5.7019191568       10.7302206414
  C        25.0674149789        7.5422849827       13.1758491872
  C        25.0628615356        7.5374508055       14.5986006563
  C        24.3681281654        6.5429124605       15.3568847158
  C        26.6076496942       17.8378415232        21.773129968138
  C        25.3069430867       17.9246309855        21.041534614538
  C        25.0654197236       18.9323895122        20.095039028238
  C        23.8509800974       18.9784584264        19.411113007538
  C        22.8448323809       18.0209521205        19.652608035338
  C        23.0832968642       17.0372998176        20.630717022338
  C        24.2971770270       16.9861985542        21.311643659438
  C        21.5723140635       18.0187873958        18.888612283438
  C        21.5723775271       17.9914036104        17.466742496438
  C        22.7783732862       17.8602432290        16.708299264738
  C        34.4168795278       17.2197584142        21.905702967438
  C        35.7051589999       17.1578144887        21.154852848238
  C        35.9002093495       16.1955456603        20.151958907938
  C        37.0841995018       16.1726783527        19.419088388338
  C        38.1054490144       17.1103039085        19.669373186738
  C        37.9115434646       18.0532623103        20.696947464938
  C        36.7257670236       18.0815414231        21.426788528438
  C        39.3637779790       17.1124321251        18.888469810338
  C        39.3656707150       17.1342080109        17.466781938738
  C        38.1625351616       17.2649244177        16.704161713038
  C        20.3255743708       18.0024083050        16.758520629038
  C        20.3478728232       18.0176619792        19.571317562838
  C        34.4800583223       17.2415962430       10.1848690079
  C        35.7859124040       17.1650712794       10.9013373969
  C        35.9953352602       16.1860906266       11.8841473149
  C        37.1806367527       16.1679351493       12.6132736238
  C        38.1836948484       17.1284833550       12.3794654496
  C        37.9809546864       18.0814663723       11.3638918811
  C        36.7936385603       18.1046172295       10.6371062421
  C        39.4273147889       17.1479535772       13.1794480974
  C        39.3980806445       17.1535036291       14.6004514501
  C        38.1778285372       17.2717399876       15.3376920236
  C        35.0855771662       26.6682997447       15.3044757639
  C        35.1481308885       26.6772964210       12.4951070682
  C        26.5638386766       17.8253964372       10.3324237768
  C        25.2511503454       17.8785885033       11.0389142391
  C        24.9855477273       18.8994840458       11.9650115050
  C        23.7676986731       18.9327943084       12.6385820908
  C        22.7869431139       17.9468454418       12.4077667739
  C        23.0476183999       16.9515136187       11.4493271248
  C        24.2663829412       16.9151916982       10.7745484947
  C        21.5226910038       17.9388834771       13.1788065082
  C        21.5467314028       17.9472346790       14.5997869127
  C        22.7650999630       17.8378094249       15.3425517507
  C        14.0457954769       17.8304738039       10.2879802695
  C        15.3496892124       17.8930232041       11.0132124688
  C        15.6047695115       18.9064600474       11.9502957195
  C        16.8126895332       18.9350303016       12.6442653189
  C        17.7990841428       17.9527531491       12.4233609168
  C        17.5486529604       16.9627279593       11.4544981138
  C        16.3402571249       16.9301264707       10.7614007534
  C        19.0673096137       17.9456711784       13.1932765380
  C        19.0655543160       17.9595478492       14.6157263504
  C        17.8586202301       17.8664026988       15.3777948636
  C        46.8070583833       17.2204711456       10.1610023671
  C        45.5210679031       17.1634393157       10.9127688820
  C        45.3184426478       16.1886595255       11.9018347049
  C        44.1401715210       16.1742616052       12.6432540703
  C        43.1352569371       17.1347875709       12.4168534441
  C        43.3360596521       18.0905655635       11.4025959102
  C        44.5149678346       18.1088919430       10.6622730557
  C        41.8816523136       17.1453962361       13.2038624333
  C        41.8817446116       17.1382001439       14.6256528703
  C        43.0875296314       17.2275514060       15.3897488652
  C        20.3121142150       17.9802344372       15.3240863854
  C        20.2914461632       17.9187583743       12.5115366798
  C        46.7825484792       17.2288913146        21.881675111138
  C        45.4752195677       17.1168429135        21.173594740438
  C        45.2557758749       16.1175065762        20.213300048038
  C        44.0651073262       16.0869713906        19.491246888938
  C        43.0635684092       17.0523272579        19.712551622438
  C        43.2720714655       18.0190563924        20.714009672838
  C        44.4641688972       18.0563842345        21.430699643538
  C        41.8187457478       17.0770906364        18.912367010338
  C        41.8496242627       17.1017253059        17.491490271338
  C        43.0722000034       17.2077883565        16.756044223238
  C        46.1531195160       26.6371292129        16.716059091138
  C        46.1623444521       26.6561222603        19.525696024438
  C        14.0452410268       17.8362317386        21.700632476038
  C        15.3666062714       17.9251952540        21.012867842038
  C        15.6296029339       18.9514467146        20.093034210738
  C        16.8571804302       19.0063177888        19.437222954538
  C        17.8491244485       18.0342719752        19.675789039738
  C        17.5930697896       17.0367814480        20.634249851938
  C        16.3672703362       16.9814957953        21.293943255838
  C        19.1154221671       18.0257612989        18.904992036238
  C        19.0905925193       18.0003028443        17.483568706538
  C        17.8708810930       17.8844743301        16.743718811438
  C        28.8068870027       14.0832198643       10.3975791059
  C        28.1995742147       12.9030296418       11.0749578088
  C        28.9246692274       12.1635899208       12.0209510696
  C        28.3279262468       11.0879516769       12.6727606608
  C        26.9919525057       10.7288689833       12.4033523375
  C        26.2899144420       11.4459568470       11.4178241448
  C        26.8846027877       12.5215535104       10.7636200833
  C        26.3237426555        9.6520358930       13.1685570631
  C        26.3148788028        9.6802569337       14.5898211881
  C        26.8228638288       10.7926438666       15.3334026957
  C        32.1712028570       21.2454947080       10.1516036567
  C        32.7577568587       22.4195142391       10.8654613018
  C        31.9984721017       23.1019027826       11.8288215665
  C        32.5595183612       24.1470119864       12.5564563796
  C        33.8962843398       24.5365946962       12.3442524120
  C        34.6380227298       23.8727843231       11.3486836808
  C        34.0787154086       22.8235825379       10.6211456645
  C        34.5178727401       25.6130868370       13.1497126609
  C        34.4915797850       25.5885174133       14.5717366326
  C        33.9625859738       24.4806477757       15.3069183358
  C        25.7035949179        8.6045817308       15.3107957621
  C        25.6833256988        8.6024181075       12.4975411450
  C        32.0827779076       21.2009791032        21.874840373038
  C        32.6514695095       22.3619877796        21.124778173438
  C        31.8951659725       23.0496535748        20.162819959038
  C        32.4633737439       24.0891103032        19.427789069738
  C        33.8009779783       24.4764312768        19.641077627338
  C        34.5401907350       23.8040223257        20.633160547738
  C        33.9778932926       22.7575454886        21.359123469138
  C        34.4341919740       25.5676241101        18.861880080038
  C        34.4458832244       25.5671527711        17.439775718738
  C        33.9382423748       24.4710581212        16.673429265438
  C        40.6152003535       17.1092264073        16.763095678038
  C        40.5850624652       17.0996505505        19.572564872738
  C        28.7473712955       14.0662632048        21.817859688838
  C        28.1361779016       12.9215302029        21.077299134338
  C        28.8760686247       12.2207107107        20.112628524138
  C        28.2965787551       11.1659702675        19.411164422338
  C        26.9614190590       10.7837746594        19.650937358238
  C        26.2382026395       11.4719545077        20.643149991038
  C        26.8156774217       12.5284156115        21.345057901638
  C        26.3219832099        9.6913146984        18.878453427438
  C        26.3151663507        9.7002476578        17.456423400938
  C        26.8207067867       10.8035153328        16.699390208338
  C        18.1355230123        3.1810163788       10.3171788565
  C        17.4062090884        4.2782679677       11.0158395492
  C        16.3901410178        3.9998906914       11.9429548569
  C        15.7423728160        5.0398545539       12.6064448013
  C        16.0946320609        6.3835393270       12.3671370669
  C        17.0844723341        6.6530960217       11.4038692744
  C        17.7336177387        5.6157647999       10.7388290614
  C        15.4701476863        7.4911907772       13.1301584650
  C        15.4853276619        7.4904953264       14.5518744037
  C        16.1869480912        6.4969112802       15.3050217290
  C        42.9457614219       31.8595631095       10.0728264084
  C        43.6461295963       30.7717993140       10.8167841593
  C        44.5915949645       31.0931187959       11.8029047990
  C        45.1972811295       30.0875652916       12.5505926765
  C        44.8708821985       28.7345089998       12.3356854459
  C        43.9451504934       28.4201678636       11.3223894559
  C        43.3363630746       29.4253223156       10.5743307290
  C        45.4884317055       27.6551889546       13.1388835482
  C        45.4925923311       27.6807891946       14.5605827932
  C        44.8055452964       28.6888651283       15.3072063709
  C        14.8562243525        8.5629223335       15.2642218149
  C        14.8748223056        8.5629022733       12.4515495296
  C        42.9463949552       31.9617169460        21.798775098638
  C        43.6916418615       30.8854977905        21.085288289638
  C        44.6562013434       31.1914067538        20.112970520738
  C        45.2777342302       30.1718139874        19.395240798038
  C        44.9539612713       28.8215083825        19.632894310438
  C        44.0205054717       28.5238358858        20.643689878438
  C        43.3922515921       29.5406129268        21.355875087238
  C        45.5629804147       27.7240814606        18.847648702538
  C        45.5331851236       27.7173083758        17.426349664438
  C        44.8268571741       28.7075292256        16.673390480138
  C        35.0642106504       26.6562864970        16.739816293038
  C        35.0536613410       26.6181168028        19.550726354938
  C        18.1486401213        3.2469357656        21.696394092338
  C        17.4300258557        4.3437596183        20.987027527138
  C        16.4144923303        4.0524769860        20.063827428938
  C        15.7661391037        5.0830941650        19.388444387338
  C        16.1210880657        6.4282963849        19.610862196938
  C        17.1128708166        6.7117049234        20.567676406338
  C        17.7605984269        5.6828023179        21.247423594138
  C        15.4904528784        7.5239624847        18.838450209938
  C        15.4963075603        7.5073730870        17.417313812138
  C        16.1931379047        6.5057109008        16.670627786438
  H        10.6724128433       12.4661748388        19.894005790238
  H        11.6944757938       10.5513411250        18.652134138538
  H        15.3910346295       11.1675249175        20.762911338738
  H        14.3507645162       13.0703335606        22.008169414138
  H        13.3757293613       11.6309280636        17.191108997238
  H        50.3226622877       22.7484342550        19.976538971038
  H        49.3194522721       24.6228591190        18.670511426838
  H        45.6421602070       24.1613376582        20.853705526138
  H        46.6630703018       22.2903789703        22.161905841938
  H        47.6295466642       23.5757536249        17.236017276838
  H        14.8720034675        8.5880450004        20.598373490938
  H        50.2868000564       22.7024534732       12.0605555576
  H        49.2687342222       24.5752545719       13.3606270912
  H        45.6104383047       24.1093722910       11.1457158587
  H        46.6526128785       22.2541183846        9.8314102097
  H        47.6074166240       23.5516372359       14.7969071949
  H        40.6711796304       17.1335929907       11.4320701270
  H        48.6870332817       14.0948992274        23.789803426738
  H        10.6814855670       12.4672724002       12.0939157089
  H        11.6895705670       10.5253366910       13.2976450366
  H        15.3927991880       11.1575941702       11.2043812166
  H        14.3644510490       13.0859788927        9.9889785322
  H        13.3754180835       11.6219335756       14.7531875862
  H        47.9302439940       14.2178086252        9.7108485015
  H        47.7799958907       14.3734643871        22.484904631538
  H        49.0843117686       18.5527651345       10.8674590696
  H        10.4161060091       14.1342788243        7.9985927344
  H        24.4899638463        3.0295981731        19.913149093638
  H        25.6332638650        4.8893359211        18.690513254138
  H        23.2536214865        7.7551572238        20.840311312238
  H        22.1285037159        5.8858850803        22.064809414438
  H        23.8183557849        5.7903555289        17.265372881538
  H        36.3544724687       32.1928317700        19.979486781538
  H        35.2047605328       30.3761580136        18.713574408638
  H        37.4736168819       27.4384193729        20.886992348038
  H        38.6023980328       29.2683270036        22.163702063638
  H        36.9723178616       29.4625127322        17.289658701938
  H        25.7420493781        8.6163980399        20.645539049438
  H        36.4529468740       32.2536427031       12.1084802808
  H        35.3289801896       30.4479105444       13.4083531954
  H        37.5212962825       27.4921464446       11.1797749727
  H        38.6194798031       29.3099759323        9.8663698327
  H        37.0039345855       29.4854151535       14.8528587542
  H        46.1091119298       26.5875178002       11.3855831188
  H        44.6683784585       35.1162520054        23.803765192438
  H        24.4290688548        3.0325883379       12.0920450922
  H        25.5624589293        4.8677717932       13.3474513463
  H        23.1760987087        7.7647527839       11.2478583721
  H        22.0538513610        5.9175306096        9.9925288459
  H        23.7955732785        5.7870119266       14.8272363136
  H        44.9541360495       34.3905118059        9.6951715769
  H        44.9019581591       34.2068551656        22.480474320138
  H        40.6661977633       33.2093599130       10.8532089610
  H        23.1504242219        1.9579675628        8.0054934720
  H        25.8382455759       19.6755468928        19.910687353838
  H        23.6674592203       19.7655970573        18.682826948938
  H        22.3179221352       16.2886917303        20.824915670538
  H        24.4929806592       16.2130118286        22.050632135838
  H        23.7185786057       17.7413751418        17.238995798238
  H        35.1090419740       15.4754357392        19.956569340538
  H        37.2342803980       15.4175048269        18.650587258338
  H        38.6911143080       18.7861033348        20.894675221438
  H        36.5610066449       18.8231700650        22.204996025538
  H        37.2215938566       17.3905130101        17.231973147438
  H        20.3546774969       18.0573140542        20.659179871138
  H        35.2086593471       15.4594402494       12.0737035910
  H        37.3429092432       15.4063074696       13.3728159526
  H        38.7500136328       18.8286808868       11.1792706836
  H        36.6140483149       18.8584303150        9.8741240434
  H        37.2486638710       17.4005513960       14.7900836890
  H        35.1344836437       26.7000790332       11.4070682917
  H        28.5083108047       21.0876944539        8.0039861098
  H        25.7438191140       19.6617219908       12.1324093183
  H        23.5579913328       19.7290325736       13.3497550816
  H        22.2983149626       16.1839654242       11.2666021575
  H        24.4842774375       16.1354313287       10.0485737223
  H        23.6949306703       17.6997208432       14.7990171732
  H        29.0061235896       21.7145236581        9.7688029871
  H        29.1335656196       21.7516964252        22.604808262438
  H        32.1084309402       18.5575057441       11.0536590260
  H        27.3509895205       19.0828493601        8.1018273443
  H        14.8458410710       19.6671376195       12.1190216987
  H        17.0074366803       19.7273197306       13.3639063539
  H        18.3000382354       16.1962991847       11.2757189570
  H        16.1350520425       16.1532450119       10.0286794463
  H        16.9161913340       17.7461673080       14.8514257226
  H        46.1010858780       15.4554307632       12.0818513677
  H        43.9824394077       15.4096885647       13.4007480042
  H        42.5680878665       18.8404550289       11.2246313358
  H        44.6866653588       18.8604782474        9.8953141213
  H        44.0314912813       17.3438692969       14.8649162425
  H        20.2856287104       17.9349606954       11.4231283158
  H        46.0346881026       15.3801904398        20.032713075338
  H        43.8991646306       15.3126783368        18.745355859738
  H        42.5037538891       18.7684691301        20.892511373038
  H        44.6464724561       18.8232036389        22.179607041838
  H        44.0045018244       17.3076712933        17.304215404938
  H        46.1992656128       26.6827462948        20.613137033238
  H        52.7409851185       21.0626475729        8.1945707035
  H        14.8615164099       19.6992751230        19.908767282938
  H        17.0601415094       19.8047122585        18.726647087938
  H        18.3510708533       16.2799903815        20.825599761138
  H        16.1541317828       16.1987155202        22.017946625538
  H        16.9377252698       17.7776313189        17.288592804438
  H        52.3219542865       21.6733784063        22.284596920038
  H        52.0131441747       21.7020481087        9.4956518691
  H        49.0665949264       18.6072140038        21.193962657738
  H        13.2472953335       19.0172001014        23.967550122838
  H        29.9523152020       12.4483949543       12.2343614770
  H        28.8909083097       10.5147637254       13.4061201833
  H        25.2580495858       11.1768968139       11.2016842806
  H        26.3397270626       13.0977686117       10.0199079429
  H        27.1884823790       11.6602095512       14.7922492792
  H        30.9725937593       22.7860523411       12.0030704038
  H        31.9648283627       24.6754712233       13.2983707993
  H        35.6726711653       24.1637936373       11.1789286888
  H        34.6573385428       22.2863192745        9.8731270509
  H        33.5993478338       23.6164094615       14.7583540559
  H        25.7107996326        8.5822779461       11.4095013528
  H        30.8587252116       22.7603138768        20.001660751538
  H        31.8690580097       24.6203623314        18.687439322438
  H        35.5756969251       24.0910256540        20.804247123538
  H        34.5547325557       22.2175070402        22.106173959038
  H        33.5566916401       23.5991230699        17.197533554538
  H        40.5738723751       17.0555453723        20.659996152138
  H        32.5139291371       14.1485367773        8.2832361140
  H        29.9073192770       12.5151419722        19.931797702338
  H        28.8782955059       10.6193904090        18.672032315638
  H        25.2050250280       11.1896718592        20.834995377438
  H        26.2538275095       13.0751035510        22.098704947038
  H        27.1835497409       11.6794450615        17.229409489038
  H        33.3054782001       14.2347134097        22.449366778038
  H        33.4112167347       14.4108186724        9.6163548149
  H        32.1637972691       18.5173247089        21.269137396938
  H        30.2291002199       14.1796513114        8.1300278619
  H        16.1178628266        2.9633887150       12.1290417109
  H        14.9526518160        4.8204804378       13.3218075506
  H        17.3673065070        7.6859404625       11.2111843886
  H        18.5160718631        5.8184152736       10.0114242162
  H        16.7536066616        5.7396625277       14.7714952696
  H        44.8278477552       32.1402087216       11.9771078673
  H        45.9371167191       30.3413444935       13.3065604397
  H        43.6825268553       27.3780922043       11.1522021696
  H        42.5998579702       29.1900242618        9.8095435119
  H        44.2302620673       29.4366807685       14.7688911648
  H        14.8511709640        8.5461163716       11.3633272904
  H        44.8997275753       32.2340939165        19.921516599538
  H        46.0246258385       30.4130715159        18.641996269838
  H        43.7635655393       27.4841051262        20.835277846138
  H        42.6457898802       29.3178522939        22.114370326038
  H        44.2684481388       29.4704829115        17.207984866538
  H        35.0174275621       26.6221660476        20.638547973038
  H        36.6053513194       35.1341697645        8.1806222028
  H        16.1432223729        3.0129063791        19.894369434638
  H        14.9735848401        4.8562616680        18.678611225338
  H        17.3967388887        7.7471369597        20.744193514838
  H        18.5438550167        5.8932631863        21.971774951438
  H        16.7646607751        5.7555532463        17.209091765638
  H        36.2791772911       34.4820150483        22.263157802138
  H        36.3816044483       34.2088378510        9.4992771880
  H        40.5793266988       33.2021945741        21.143646016738
  H        17.4711203645        1.9474805464        23.963839267838
  H        28.8285479266       19.0617508110       12.4994313369
  H        28.9661392955       18.4952725226        19.914777618638
  H        31.6065700255       15.7370757717        19.583287102238
  H        31.1170835332       15.5126147024       12.5403398072
  H        26.8963659418       18.3768557135       14.3128915768
  H        29.2110555081       15.8783401434       14.7732892243
  H        30.9399582577       20.2625435337        18.985089387638
  H        32.8806633777       17.4731703425        17.568582687338
  H        29.2486245116       16.4155602990        18.279115659938
  H        32.4712882300       18.7648810838       14.4850302199
  H        18.8542606105        0.8690805563       12.3354511737
  H        40.5281703734       35.2289034584        19.941827574538
  H        42.3243700453       34.4193202301        19.579914101438
  H        22.0875573096        0.6922855552       12.3513725834
  H        11.5967212942       18.7130905542       12.3824840933
  H        52.2646251506       18.4309219504        19.666999560438
  H        49.2558716346       16.4764141039        19.573684290538
  H        10.1504195157       15.7982010754       12.2926976924
  H        50.8497767740       17.6923811415        19.943985765738
  H        10.0462353282       17.3945665004       12.0519397312
  H        20.2157961842        0.0023070648       12.0418313797
  H        39.1838575214       36.1244821884        19.676238470938
 Ni        31.1975226191       17.9611213760        19.234393357638
 Ni        30.9040547646       16.7691687505        16.242906319338
 Ni        30.3115335852       19.0135116337       15.821279414638
 Ni        30.3954574526       17.5950024579       13.4039819881
  O        10.6499078886       14.3651522457        21.475650605638
  O        12.6131530516       14.6575940735        22.573682691338
  O        49.1479510592       16.8459488108        23.979413768838
  O        50.3502220406       20.9360052950        21.637874911938
  O        48.3485301804       20.5933107214        22.655670892338
  O        11.0513741598       17.0538859807        22.490596994638
  O        50.3208861188       20.8816720904       10.4068019574
  O        48.3467076877       20.5867413315        9.3270236190
  O        49.5437824119       18.2483902949       10.0681788233
  O        12.3592396338       18.6245357195        7.9996097564
  O        48.6932423332       14.1486231785        22.741069437438
  O         8.2099230573       14.2103342015        9.3224723826
  O        10.7353989450       14.5067615336       10.6642930194
  O        12.5718335327       14.5829184096        9.3284608380
  O        22.8445074504        2.0430532221        21.477201877438
  O        21.6054963087        3.5922135960        22.579566158438
  O        42.0580756215       34.1372997890        23.968670355438
  O        37.9813053683       33.1366703500        21.562328021738
  O        39.2173167699       31.5750380840        22.655647250138
  O        20.3084395035        1.0396057262        22.491928324038
  O        38.0247433523       33.1860243279       10.4153218956
  O        39.2179409742       31.5826672752        9.3279384245
  O        40.6522647672       33.7693094734       10.0600806581
  O        18.2558163425        1.3763368138        7.9967704996
  O        44.6222194522       35.1005346210        22.748559913538
  O        24.2054483085       -0.0000609407        9.3207109139
  O        22.7528279503        2.0566949811       10.5835004153
  O        21.6246326275        3.5960212475        9.3431481075
  O        27.5318552569       18.6822638983        21.476704585038
  O        26.6994578583       16.9246264705        22.657842934038
  O        30.6461136310       19.3550764396        8.1362719589
  O        33.5388237401       16.3267127855        21.649362267038
  O        34.2734199543       18.1786735698        22.736959207638
  O        29.5721696261       17.0580385194        22.643165925238
  O        33.6208377336       16.3292749680       10.4180425614
  O        34.3071098841       18.2461977545        9.4112500917
  O        31.6487548079       18.3117305270       10.2347099536
  O        30.3203869221       15.1464801780        8.1477569148
  O        28.5497846755       21.0328911996        22.905372646638
  O        28.5131751986       20.9560436033        9.4117908047
  O        27.4511538700       18.6784482774       10.6638315049
  O        26.6877091722       16.9278604144        9.4237693864
  O        13.1472875050       18.6936266725       10.5869241162
  O        13.9195419958       16.9165489270        9.4055468260
  O        50.5960508420       19.3502341584        8.0202003397
  O        47.6840200056       16.3268887173       10.4171603968
  O        46.9519670240       18.1758212208        9.3245739780
  O        11.0697849333       17.0154764544        9.4895285701
  O        47.6748277550       16.3356695451        21.642830731838
  O        46.9259845983       18.2358501736        22.653850727238
  O        49.5684870359       18.3176469552        21.971879938638
  O        10.3187087051       15.1001339126        7.9970415403
  O        52.6707268448       21.0279142929        9.2417954298
  O        12.1467948502       20.8913049292        22.663078178838
  O        13.1057814267       18.6145744384        21.315853666938
  O        13.9574834879       16.9878227624        22.653901206338
  O        29.9892182516       14.4380603555       10.7395931287
  O        28.0871421956       14.6504116994        9.5029607095
  O        32.1384789872       16.8521290982        8.1470488432
  O        30.9605664207       20.9499921368       10.4159401959
  O        32.9428163678       20.6075839941        9.3478749944
  O        29.5650948962       17.0769975224        9.5844726060
  O        30.8544401666       20.8879842038        21.652833573238
  O        32.8709638194       20.5849599356        22.662000206238
  O        31.6811115520       18.2526314649        22.074682015738
  O        28.2309314357       18.6739980179        8.0911735303
  O        32.4955682451       14.2128371985        9.3453519854
  O        32.4053965622       14.2162104751        22.815507580038
  O        29.9206929462       14.4351808895        21.493839475538
  O        28.0368133086       14.5930050753        22.747832581638
  O        17.8892149706        1.9666495224       10.6628006794
  O        18.9562091883        3.5271871874        9.4079706341
  O        39.1685295025       34.1386261961        7.9971304629
  O        43.2802193218       33.0588724006       10.3317058081
  O        42.0343434539       31.5064352953        9.2416133023
  O        20.3177227231        1.0367803957        9.4800739402
  O        43.2760860550       33.1825814517        21.564667710338
  O        42.0052378753       31.5841097425        22.572792186238
  O        40.5789854016       33.7750232977        21.925659051638
  O        22.3673736400        1.3846209494        7.9978868174
  O        36.6727875024       35.0997891410        9.2332738201
  O        16.4456869556        0.0642406075        22.658035617238
  O        17.9364374018        2.0432992629        21.316195725338
  O        18.9190247806        3.5931878855        22.655673918438
  O        29.8244352018       18.8328548572        20.233262072438
  O        29.7016939040       18.9056296665       12.0807548477
  O        31.0920599151       16.3438970827        20.148816478138
  O        31.3372622690       16.3456626907       12.0815715000
  O        32.0673263094       17.0025852921        17.822321950438
  O        29.0276173710       16.5551838728        17.333715494938
  O        30.1611185660       16.0454896811       14.6475066378
  O        31.6915428176       18.2498315493       14.7518672466
  O        31.5105964253       19.7070809012        18.407993900438
  O        27.8649519283       18.3906787472       14.2349379860
  O        39.4568407177       35.2437982694        19.991781210138
  O        19.1420867808        0.0046976317       11.9904573654
  O        41.9694816937       35.1726762201        20.076948107738
  O        21.6913135264       -0.0694140484       11.8960182901
  O        51.3648711008       18.6142926277        19.995078479238
  O        10.7509645757       18.7472041380       11.9048865778
  O        50.0800360471       16.4128008431        20.081466888738
  O         9.5245766867       16.4830822671       11.9911812507
 Zr         9.2968046393       16.0527206504        22.172151630138
 Zr        49.8364959358       16.0065069769        9.7463806315
 Zr        22.0734817997        0.0304025419        22.178592252138
 Zr        42.4611116087       35.1538068092        9.8008979876
 Zr        29.5912017144       19.1016755665        22.371296091338
 Zr        29.5579474551       19.1578456302        9.9316608272
 Zr        11.0375811880       19.0520026578        9.8274893220
 Zr        11.0435274998       19.1549061173        22.240587126538
 Zr        31.3407221479       16.0995548352        9.9446916669
 Zr        31.3768594938       16.0153312512        22.350212917738
 Zr        18.6014542157       -0.0009579853        9.7634514771
 Zr        18.5068924247       -0.0074464544        22.203479271138
 Zr        12.3019396040       16.3233782858        23.979892387438
 Zr        48.6163485874       18.8331223208        8.0098236224
 Zr        20.3157687118        2.4741184982        23.980328503438
 Zr        40.6433375489       32.6873296003        23.967932706738
 Zr        28.3274469795       16.3286371467        8.1040265556
 Zr        32.6287739950       18.8284057956        8.0964168840
  H        28.2211001075       18.7810218501       15.0754667941
  H        28.9283932606       17.5387810315        17.226951775138
  H        30.9813757749       19.6398113857        17.523005150138
  H        29.1509730743       19.3988476678        16.679613814238
