     573
 i =      202, E =     -4762.8146441453
  C        11.8586222969       14.0533998407        21.731396154838
  C        12.4559663038       12.8902671993        21.013384493338
  C        11.7044955298       12.1719682071        20.071045633138
  C        12.2807849608       11.1097248517        19.378694900938
  C        13.6211382536       10.7393426796        19.606886706738
  C        14.3539863641       11.4421790756        20.581155618638
  C        13.7811961619       12.5071878103        21.272696705038
  C        14.2606737957        9.6487377223        18.833432632538
  C        14.2559589077        9.6567131937        17.411726540138
  C        13.7428740317       10.7588460057        16.657778670038
  C        49.1266028852       21.2333842330        21.869419430038
  C        48.5498438661       22.4012230986        21.142403868538
  C        49.2998536863       23.0685379001        20.161362653138
  C        48.7328963633       24.1076308757        19.428152619038
  C        47.4023565823       24.5092925291        19.656803822038
  C        46.6714264574       23.8604099975        20.670331363638
  C        47.2338786570       22.8155261622        21.399692267138
  C        46.7720955495       25.5869503784        18.859519068238
  C        46.7611783438       25.5572992350        17.437763481138
  C        47.2610788123       24.4421962209        16.694263338538
  C        14.8599730427        8.5704397809        16.698419775538
  C        14.8914953644        8.5967642566        19.510029974438
  C        49.1130382765       21.2035152981       10.1453086769
  C        48.5276777520       22.3647873137       10.8724337063
  C        49.2668222353       23.0254283871       11.8654806029
  C        48.6904637942       24.0599748053       12.5969054359
  C        47.3600572530       24.4567805061       12.3586187471
  C        46.6397506217       23.8119690476       11.3349526703
  C        47.2133185435       22.7760667174       10.6031899361
  C        46.7216124192       25.5317373706       13.1496346861
  C        46.7333620019       25.5280820781       14.5713297505
  C        47.2487790983       24.4288649758       15.3277136211
  C        40.6308664881       17.1230410065       15.3240115363
  C        40.6564729143       17.1587533380       12.5149713402
  C        11.8828718167       14.0863850619       10.2853933824
  C        12.4719725459       12.9103630334       10.9893382654
  C        11.7147110325       12.1779295756       11.9162822424
  C        12.2811690169       11.0954823828       12.5848014210
  C        13.6196244522       10.7208547657       12.3522084433
  C        14.3572004892       11.4354358361       11.3903273730
  C        13.7918796859       12.5165821149       10.7175237056
  C        14.2532859572        9.6242611381       13.1227441961
  C        14.2520770540        9.6443304073       14.5445951452
  C        13.7422964808       10.7532867847       15.2917293524
  C        22.5124396129        3.2442312580        21.743194177038
  C        23.2284503382        4.3486727120        21.044322437138
  C        24.2255566380        4.0671549665        20.098651137438
  C        24.8539573739        5.1056635138        19.416451059838
  C        24.5009607760        6.4479224934        19.659616107438
  C        23.5322374470        6.7209357331        20.642581640238
  C        22.8991663665        5.6842640775        21.323274842038
  C        25.1077934439        7.5533920644        18.883556284938
  C        25.0804559644        7.5459594465        17.462119396238
  C        24.3770809823        6.5470675206        16.716728715138
  C        38.2974086753       31.9284830072        21.842129452238
  C        37.5535912440       30.8413107411        21.141193666338
  C        36.5852441796       31.1514037032        20.173670179638
  C        35.9516248447       30.1358924577        19.462688353338
  C        36.2710648723       28.7837438137        19.695429190038
  C        37.2089053694       28.4809693520        20.700817645638
  C        37.8463207459       29.4955384788        21.411548560238
  C        35.6574839508       27.6979894798        18.895814952038
  C        35.6932995374       27.7155476975        17.473984747838
  C        36.4047103028       28.7171381493        16.740737021938
  C        25.7041705361        8.6153410170        16.741878800938
  C        25.7052947051        8.6280717179        19.553892615938
  C        38.3296713783       31.9610732192       10.1600398771
  C        37.6102152204       30.8897827346       10.9093208135
  C        36.6761857722       31.2029036738       11.9091412314
  C        36.0621731793       30.1886257363       12.6419669750
  C        36.3670675103       28.8339253058       12.4000010217
  C        37.2823295755       28.5307627385       11.3729983803
  C        37.8979736133       29.5416318060       10.6409078234
  C        35.7482531259       27.7380187902       13.1825393509
  C        35.7397820618       27.7359431463       14.6053042350
  C        36.4258268529       28.7278015420       15.3743153100
  C        46.1353654026       26.6207356326       15.2814388980
  C        46.0876277731       26.5800676120       12.4735620335
  C        22.4609212026        3.2556949854       10.2576979351
  C        23.1549261566        4.3638157840       10.9808729696
  C        24.1570908097        4.0769723722       11.9214142926
  C        24.7853349218        5.1065378206       12.6178248284
  C        24.4314826629        6.4526308227       12.3965213397
  C        23.4523848945        6.7326614844       11.4244560112
  C        22.8194808512        5.7033864298       10.7284458201
  C        25.0631589112        7.5501425251       13.1705671402
  C        25.0581710563        7.5435132611       14.5933485047
  C        24.3645834787        6.5469680137       15.3501289926
  C        26.5997522166       17.8380007201        21.769607295638
  C        25.2988169139       17.9183828386        21.038508036738
  C        25.0500987723       18.9333466794        20.101557034238
  C        23.8361358274       18.9766149184        19.417197619738
  C        22.8376547524       18.0092150520        19.649776802538
  C        23.0828144773       17.0177986172        20.618033473238
  C        24.2967726637       16.9695138365        21.299426088538
  C        21.5658600026       18.0075223579        18.885160035038
  C        21.5680162998       17.9852648139        17.463503116238
  C        22.7754946596       17.8583876456        16.706721091338
  C        34.4222756136       17.2180468278        21.901582882238
  C        35.7121405831       17.1559022497        21.154701742438
  C        35.9118563947       16.1898742173        20.156303490938
  C        37.0947803792       16.1701285927        19.422157447938
  C        38.1108617594       17.1143737071        19.667466828038
  C        37.9134148644       18.0606768668        20.691155953538
  C        36.7281434683       18.0861919468        21.421864699138
  C        39.3678992122       17.1182753697        18.884979946238
  C        39.3675108060       17.1371844311        17.463278573438
  C        38.1631762626       17.2656282069        16.702062804738
  C        20.3223739883       17.9983635541        16.753737234738
  C        20.3411824205       18.0049873297        19.566713996638
  C        34.4765618295       17.2439001432       10.1795131815
  C        35.7807860503       17.1655724877       10.8988473955
  C        35.9907522414       16.1849680955       11.8797935674
  C        37.1760905225       16.1656572460       12.6089996640
  C        38.1793132265       17.1262729601       12.3765861157
  C        37.9762861965       18.0807675949       11.3624705873
  C        36.7887682204       18.1053230761       10.6361522548
  C        39.4236945655       17.1447683453       13.1758703176
  C        39.3960585936       17.1517772296       14.5970175474
  C        38.1765393475       17.2706580687       15.3354685575
  C        35.0991168282       26.6598013786       15.3058129663
  C        35.1647136081       26.6651946168       12.4959919824
  C        26.5675990305       17.8212711159       10.3277587655
  C        25.2561184127       17.8689631949       11.0394035519
  C        24.9852834526       18.8970551960       11.9560645272
  C        23.7672047753       18.9311657598       12.6295288804
  C        22.7908980849       17.9389650418       12.4073780031
  C        23.0575345684       16.9345187368       11.4602834382
  C        24.2766445400       16.8975876548       10.7856604575
  C        21.5248263184       17.9346411170       13.1759765802
  C        21.5466467501       17.9452612996       14.5967674061
  C        22.7642854251       17.8381790113       15.3409986985
  C        14.0458639496       17.8306949270       10.2870289019
  C        15.3508356553       17.8936915958       11.0102906582
  C        15.6090940479       18.9102729034       11.9429415905
  C        16.8181204870       18.9390624652       12.6349536263
  C        17.8019155823       17.9537278294       12.4164308769
  C        17.5484963935       16.9606327041       11.4516485374
  C        16.3391013032       16.9279840230       10.7603719295
  C        19.0696810559       17.9454899749       13.1868621314
  C        19.0656582356       17.9597565092       14.6092360380
  C        17.8573285641       17.8688669124       15.3695676963
  C        46.8065607475       17.2198074824       10.1602970939
  C        45.5196059053       17.1612342346       10.9100302034
  C        45.3163990531       16.1859696207       11.8985283517
  C        44.1369953098       16.1702960950       12.6380697375
  C        43.1315757971       17.1300847413       12.4105359186
  C        43.3327790945       18.0859850383       11.3965107187
  C        44.5127832327       18.1055336082       10.6579700686
  C        41.8781494349       17.1411057158       13.1976645523
  C        41.8798603872       17.1360671764       14.6194320789
  C        43.0865600016       17.2269306869       15.3820176006
  C        20.3110876588       17.9785118331       15.3193925675
  C        20.2946976004       17.9154661834       12.5067473618
  C        46.7830959400       17.2295583468        21.880729003438
  C        45.4771027652       17.1195034638        21.170349610938
  C        45.2580256261       16.1211149399        20.208980778238
  C        44.0683225079       16.0923235668        19.485340917738
  C        43.0674692073       17.0585486439        19.705990551638
  C        43.2759011218       18.0248395741        20.707911330938
  C        44.4669647886       18.0603817218        21.426253171638
  C        41.8224564676       17.0833754321        18.906416900938
  C        41.8514730612       17.1051913028        17.485481890938
  C        43.0731125866       17.2097575927        16.748381712138
  C        46.1531729870       26.6371586911        16.715984530838
  C        46.1621507916       26.6560846279        19.525634603538
  C        14.0438652717       17.8350256326        21.699769595138
  C        15.3637215521       17.9213381510        21.009255818338
  C        15.6277859837       18.9491388029        20.091584372638
  C        16.8543397857       19.0020864778        19.433827162238
  C        17.8435193738       18.0265283202        19.668855587538
  C        17.5861348829       17.0267244890        20.624401405838
  C        16.3614566480       16.9734356214        21.285997830138
  C        19.1097714113       18.0175265632        18.898713510338
  C        19.0865342914       17.9964442500        17.477298175438
  C        17.8675471767       17.8850490637        16.735600326138
  C        28.8093857050       14.0897574794       10.3911254090
  C        28.1978437489       12.9138728163       11.0749402287
  C        28.9218849876       12.1700706181       12.0182967880
  C        28.3226648447       11.0957381973       12.6705637379
  C        26.9850345517       10.7408780863       12.4034961247
  C        26.2831877619       11.4631054481       11.4215727446
  C        26.8802548459       12.5378104876       10.7676876449
  C        26.3163512346        9.6621382976       13.1664667487
  C        26.3074900131        9.6877888654       14.5877672824
  C        26.8145380564       10.7993878351       15.3330394491
  C        32.1777524299       21.2404900639       10.1455726390
  C        32.7704900302       22.4078854144       10.8663942882
  C        32.0135222459       23.0947185265       11.8286925141
  C        32.5789645709       24.1358148638       12.5590398143
  C        33.9176016689       24.5201774911       12.3482426103
  C        34.6574404168       23.8518719664       11.3543718257
  C        34.0944066740       22.8048186795       10.6262365313
  C        34.5394180728       25.5986198527       13.1515837963
  C        34.5135237634       25.5752868366       14.5734870223
  C        33.9946688735       24.4632341262       15.3091749401
  C        25.6973954405        8.6103835396       15.3071899856
  C        25.6774212565        8.6124555607       12.4937886476
  C        32.0778630645       21.2040497385        21.873940054338
  C        32.6472496262       22.3666121807        21.128607334938
  C        31.9089586533       23.0122520455        20.124926414438
  C        32.4765019335       24.0546705828        19.393838476038
  C        33.7961966080       24.4802494278        19.645316887138
  C        34.5159613737       23.8462323040        20.676649947338
  C        33.9534346791       22.8010350096        21.404160693838
  C        34.4325037413       25.5677116693        18.864303956038
  C        34.4575065098       25.5602403128        17.441819393338
  C        33.9666978264       24.4563998778        16.675570853738
  C        40.6161899147       17.1112795132        16.758324485838
  C        40.5896031725       17.1076120638        19.567992825938
  C        28.7409100386       14.0642141415        21.814604690038
  C        28.1307733741       12.9174319068        21.078111851238
  C        28.8675503788       12.2262694933        20.104154207338
  C        28.2889828005       11.1710740844        19.403083222838
  C        26.9575198040       10.7809051147        19.650694314638
  C        26.2379701309       11.4595920398        20.652178578838
  C        26.8149172684       12.5155042831        21.355127291338
  C        26.3176888313        9.6904505927        18.876455892538
  C        26.3089904701        9.7028024856        17.454416569238
  C        26.8126668836       10.8081443379        16.699021838838
  C        18.1354588390        3.1809091055       10.3171339873
  C        17.4061248557        4.2781890319       11.0158350509
  C        16.3900753177        3.9997379210       11.9429360755
  C        15.7422639426        5.0396724000       12.6064407841
  C        16.0944100175        6.3833727787       12.3671068365
  C        17.0842059011        6.6529745485       11.4038080215
  C        17.7334055909        5.6156913431       10.7387464408
  C        15.4699542558        7.4910361300       13.1301455061
  C        15.4852375384        7.4904164587       14.5518642644
  C        16.1868479148        6.4968194544       15.3050067131
  C        42.9457089962       31.8595641468       10.0728625127
  C        43.6460781310       30.7718080098       10.8168060803
  C        44.5916955871       31.0931028472       11.8027887562
  C        45.1973546223       30.0875486342       12.5504865657
  C        44.8708783158       28.7345114285       12.3355933784
  C        43.9449686147       28.4201652427       11.3224692233
  C        43.3362220906       29.4253389526       10.5744033826
  C        45.4884123061       27.6551996125       13.1388116613
  C        45.4926704517       27.6808652800       14.5605094106
  C        44.8055755583       28.6889017032       15.3071392444
  C        14.8561832527        8.5628928449       15.2641867792
  C        14.8745617967        8.5626990658       12.4515226303
  C        42.9463260047       31.9616452796        21.798740269238
  C        43.6914746496       30.8854471424        21.085166648938
  C        44.6563168959       31.1913403363        20.113122243338
  C        45.2777988700       30.1717531950        19.395345650938
  C        44.9538471210       28.8214601460        19.632834437038
  C        44.0201414393       28.5237856898        20.643394713338
  C        43.3919365900       29.5405665765        21.355617600538
  C        45.5628701967       27.7240622851        18.847546540038
  C        45.5332139979       27.7173399660        17.426246695638
  C        44.8268605217       28.7075666050        16.673321986938
  C        35.0728220877       26.6508739299        16.741229466238
  C        35.0442194577       26.6242496159        19.551541925338
  C        18.1486230011        3.2468908917        21.696397336438
  C        17.4300089723        4.3437522089        20.986998983738
  C        16.4144492636        4.0524449276        20.063846540438
  C        15.7661094857        5.0830572323        19.388436041538
  C        16.1210514527        6.4282535478        19.610855963238
  C        17.1128941980        6.7116728520        20.567602346738
  C        17.7606138819        5.6827830060        21.247381082338
  C        15.4904494117        7.5239304181        18.838420976638
  C        15.4962822321        7.5073662957        17.417281644938
  C        16.1930794917        6.5056680297        16.670613086438
  H        10.6725574252       12.4665215388        19.893606528538
  H        11.6946020647       10.5516799204        18.651736505238
  H        15.3907682053       11.1669935929        20.763434224538
  H        14.3504721622       13.0698062521        22.008742064538
  H        13.3758682715       11.6309895865        17.191053659638
  H        50.3225684549       22.7485362479        19.976618595138
  H        49.3193306395       24.6229218217        18.670557260338
  H        45.6419388158       24.1611781028        20.853528366238
  H        46.6628345756       22.2902986421        22.161771093838
  H        47.6294968519       23.5757683151        17.235946157638
  H        14.8718659691        8.5879284222        20.598336296338
  H        50.2868567642       22.7025863277       12.0604479822
  H        49.2687643000       24.5753876962       13.3605045098
  H        45.6103691037       24.1092385832       11.1458096981
  H        46.6525190884       22.2540170997        9.8315343108
  H        47.6074272652       23.5516717032       14.7968525864
  H        40.6657097807       17.1281933998       11.4271474772
  H        48.6869764281       14.0948613904        23.789807166638
  H        10.6815197014       12.4676064262       12.0943149875
  H        11.6895274969       10.5256560044       13.2980770120
  H        15.3922570048       11.1566959029       11.2035604951
  H        14.3639326796       13.0851185523        9.9881205779
  H        13.3754842317       11.6219391106       14.7531510124
  H        47.9302210553       14.2177485381        9.7108680882
  H        47.7799213059       14.3731933503        22.484822368438
  H        49.0837786154       18.5526247510       10.8673773769
  H        10.4158800856       14.1342755285        7.9986070869
  H        24.4856183105        3.0282130313        19.908585884538
  H        25.6272861787        4.8872088451        18.683199274238
  H        23.2525996568        7.7543240325        20.836783638838
  H        22.1289989659        5.8857303027        22.063810148538
  H        23.8157385387        5.7907441572        17.257544367738
  H        36.3539556138       32.1962179448        19.980390207738
  H        35.2015338458       30.3815371331        18.714100448438
  H        37.4636711958       27.4400413630        20.889176418338
  H        38.5956337358       29.2679269927        22.166129508038
  H        36.9662506193       29.4670207872        17.290222176138
  H        25.7401376624        8.6114294354        20.641715501938
  H        36.4504367860       32.2480237768       12.1086377450
  H        35.3311542443       30.4391202737       13.4075595869
  H        37.5320713792       27.4896941913       11.1790943198
  H        38.6248197176       29.3104408284        9.8659508249
  H        37.0044014851       29.4855067825       14.8536943309
  H        46.1089858190       26.5874703514       11.3855255833
  H        44.6683089880       35.1162148400        23.803757494038
  H        24.4345393478        3.0385803399       12.0879829456
  H        25.5662379979        4.8771830572       13.3397338529
  H        23.1678306150        7.7673850665       11.2445352575
  H        22.0477828511        5.9168495152        9.9924414366
  H        23.7930338878        5.7911642070       14.8192891800
  H        44.9538897988       34.3904401610        9.6952174427
  H        44.9018438066       34.2067874592        22.480500676238
  H        40.6659871165       33.2091015076       10.8531596941
  H        23.1503530604        1.9579200722        8.0053728493
  H        25.8161552188       19.6856503692        19.926416944638
  H        23.6461226713       19.7693583276        18.696675771738
  H        22.3226919343       16.2619281138        20.804600633638
  H        24.4984585276       16.1910635177        22.031337077338
  H        23.7147569692       17.7417688825        17.239491771338
  H        35.1256948182       15.4635063773        19.964544214838
  H        37.2479706477       15.4130280293        18.656216490338
  H        38.6893452086       18.7984735268        20.884699549038
  H        36.5598346934       18.8312456157        22.196034249238
  H        37.2225637971       17.3912537984        17.230546415338
  H        20.3468233974       18.0406106095        20.654701284338
  H        35.2048868237       15.4573423495       12.0682467831
  H        37.3381668496       15.4030249457       13.3675576645
  H        38.7453020778       18.8282212916       11.1787075118
  H        36.6091140655       18.8604277274        9.8745012193
  H        37.2463974910       17.3993628066       14.7893255387
  H        35.1511377304       26.6870952274       11.4079195491
  H        28.5067213250       21.0905051915        23.968663893038
  H        25.7386190988       19.6662914442       12.1138306594
  H        23.5530914916       19.7337534662       13.3322750743
  H        22.3118372485       16.1617330161       11.2849510246
  H        24.4983711248       16.1122702613       10.0667792877
  H        23.6947453702       17.7039553811       14.7976526498
  H        28.9998976408       21.7175959325        9.7723289612
  H        29.1437831039       21.7446138324        22.595860191638
  H        32.1513475424       18.5695438238       10.9573417989
  H        27.3508384303       19.0662253808        8.0858388261
  H        14.8516757547       19.6728281150       12.1099975632
  H        17.0155149872       19.7334013840       13.3516085024
  H        18.2979690461       16.1918369465       11.2750323106
  H        16.1310867339       16.1488090494       10.0308962557
  H        16.9153860828       17.7516352436       14.8416837071
  H        46.0994943876       15.4535139293       12.0797023767
  H        43.9788983734       15.4056518394       13.3954147608
  H        42.5643396723       18.8351624107       11.2175567799
  H        44.6847988708       18.8573320661        9.8912929853
  H        44.0298763124       17.3424233205       14.8558826509
  H        20.2904800527       17.9296415898       11.4183003902
  H        46.0362646789       15.3828849106        20.029240410738
  H        43.9023206935       15.3183982473        18.739089868338
  H        42.5081249048       18.7749518487        20.885781251038
  H        44.6490877248       18.8265948076        22.175811696338
  H        44.0061324864       17.3107967283        17.295136086138
  H        46.1989308044       26.6826166177        20.613082155938
  H        52.7408925356       21.0626153323        8.1945696552
  H        14.8615289573       19.6997289230        19.910962830338
  H        17.0589351313       19.8019719679        18.725403928738
  H        18.3422947717       16.2672288022        20.812224107138
  H        16.1468095408       16.1894496799        22.008237174738
  H        16.9333199242       17.7799737773        17.279013566938
  H        52.3217131074       21.6733422083        22.284753687738
  H        52.0129795702       21.7019089264        9.4956423756
  H        49.0663730544       18.6074094175        21.194071001638
  H        13.2471172747       19.0172674846        23.967201539038
  H        29.9519901687       12.4486727811       12.2279324676
  H        28.8856096249       10.5193206637       13.4014532896
  H        25.2499796942       11.1979182101       11.2069635431
  H        26.3358014219       13.1167374402       10.0257523997
  H        27.1796934507       11.6678546896       14.7930939142
  H        30.9832062421       22.7894195994       11.9960377290
  H        31.9858600779       24.6673619576       13.3000617505
  H        35.6935530176       24.1382031653       11.1855142070
  H        34.6719785574       22.2645820510        9.8795297487
  H        33.6445015849       23.5932415975       14.7611548148
  H        25.7049697638        8.5939122507       11.4057056049
  H        30.8949597024       22.6745366218        19.921830622638
  H        31.8957029403       24.5559575308        18.622583078738
  H        35.5378375680       24.1612350990        20.877637240638
  H        34.5162349157       22.2912441749        22.182540139738
  H        33.5947912141       23.5808924261        17.200194357538
  H        40.5793777585       17.0656286940        20.655506661938
  H        32.5130257370       14.1487607969        8.2534286568
  H        29.8949468311       12.5298001370        19.915955872538
  H        28.8681004059       10.6311956831        18.657072874538
  H        25.2078051705       11.1706333195        20.850146551938
  H        26.2560324158       13.0553372944        22.115915503238
  H        27.1747734926       11.6838258271        17.230025583338
  H        33.3065093351       14.2203938756        22.448307637338
  H        33.4079556700       14.4073895299        9.6048418416
  H        32.1325651596       18.5276068444        21.178432879238
  H        30.2236197394       14.1864964849        8.0813137711
  H        16.1178521975        2.9632240168       12.1290405290
  H        14.9525560286        4.8202637660       13.3218070883
  H        17.3669340941        7.6858330087       11.2110518278
  H        18.5157786782        5.8183293907       10.0112534590
  H        16.7533990763        5.7395048392       14.7714564043
  H        44.8279864842       32.1401897190       11.9769434699
  H        45.9372692159       30.3413073838       13.3063804065
  H        43.6822185554       27.3781062015       11.1523766157
  H        42.5995843943       29.1900422838        9.8097404173
  H        44.2302553055       29.4366762769       14.7688111805
  H        14.8507682525        8.5458070419       11.3633043109
  H        44.8999658751       32.2340201831        19.921797377538
  H        46.0248099720       30.4129949288        18.642215006038
  H        43.7629552171       27.4840748131        20.834765419438
  H        42.6452510320       29.3177902331        22.113890018538
  H        44.2683935928       29.4704836783        17.207911451838
  H        34.9992133738       26.6345721012        20.638967067538
  H        36.6053264071       35.1341167188        8.1806039026
  H        16.1431902501        3.0128650562        19.894427064638
  H        14.9735249418        4.8561967702        18.678646242538
  H        17.3967385699        7.7471135120        20.744099626038
  H        18.5438880998        5.8932236954        21.971719370938
  H        16.7645412467        5.7554614439        17.209073875038
  H        36.2791519411       34.4820058306        22.263273937038
  H        36.3814637897       34.2088271977        9.4993816265
  H        40.5788426533       33.2016995872        21.143888053238
  H        17.4710701046        1.9472591400        23.963904227338
  H        28.8093133688       19.0113489912       12.3918706820
  H        28.8741770939       18.8167224901        19.777003188538
  H        32.0155231200       15.9381274414        19.610964170738
  H        31.1979315193       15.4843765897       12.5176496520
  H        26.9112777892       18.3609113990       14.3170062082
  H        29.2510402902       15.9817402688       14.7134696783
  H        32.8091372589       17.6810621484        17.506255747938
  H        29.8057553282       15.8283499562        18.535924507438
  H        31.2675753555       19.7395775840       13.9002315589
  H        18.8539938271        0.8690106096       12.3353685993
  H        40.5282086109       35.2288745344        19.941881451438
  H        42.3238424538       34.4186480101        19.580284331838
  H        22.0876625054        0.6922474747       12.3513417870
  H        11.5967230671       18.7131278647       12.3825353243
  H        52.2644599795       18.4307406178        19.667100988838
  H        49.2552332568       16.4765984781        19.573990534438
  H        10.1502157169       15.7981746996       12.2928073355
  H        50.8495233157       17.6924601189        19.943996034038
  H        10.0460818623       17.3945524238       12.0519865242
  H        20.2154282197        0.0022599598       12.0418829344
  H        39.1839080473       36.1244543166        19.676132277938
 Ni        30.9877945634       17.9410561402        19.148035511438
 Ni        30.9079784307       16.6597065981        16.325521747038
 Ni        30.4373438258       18.9397943822        16.076982171738
 Ni        30.4380893490       17.5701170816       13.2417665370
  O        10.6499246862       14.3651651077        21.475629130538
  O        12.6131275587       14.6576192952        22.573679005438
  O        49.1479366103       16.8459788250        23.979448218538
  O        50.3501829827       20.9361047082        21.637994061038
  O        48.3485170711       20.5933483516        22.655713413538
  O        11.0511911453       17.0540012854        22.490572504638
  O        50.3209099172       20.8816253333       10.4068174295
  O        48.3467309569       20.5867645101        9.3270264788
  O        49.5436701840       18.2484335712       10.0682685841
  O        12.3591053552       18.6245678894        7.9996403468
  O        48.6932157032       14.1486375964        22.741080216538
  O         8.2098836326       14.2103322964        9.3224356458
  O        10.7353625171       14.5067345196       10.6643035466
  O        12.5718012469       14.5829068083        9.3284628659
  O        22.8444911663        2.0428294231        21.477117482238
  O        21.6055417348        3.5921247140        22.579389201538
  O        42.0579632736       34.1372366052        23.968738527438
  O        37.9812499506       33.1373441255        21.562449493438
  O        39.2170162410       31.5750982191        22.655358773638
  O        20.3084418801        1.0394355333        22.491877288538
  O        38.0245193609       33.1854238633       10.4155090769
  O        39.2180784875       31.5827599649        9.3278040288
  O        40.6522542632       33.7691811410       10.0601158322
  O        18.2558636663        1.3762454539        7.9967726593
  O        44.6222358185       35.1005205690        22.748562753838
  O        24.2054061433       -0.0000099041        9.3207596478
  O        22.7529246066        2.0574810688       10.5837037415
  O        21.6244006698        3.5959824818        9.3427436916
  O        27.5169087306       18.6871784618        21.472531470838
  O        26.6980364812       16.9253204324        22.655285131138
  O        30.6434546069       19.3515861495        8.0762599807
  O        33.5448230567       16.3252572023        21.643996560938
  O        34.2755740064       18.1773016717        22.731894700038
  O        29.5672787337       17.0555696901        22.574303835738
  O        33.6155958656       16.3292278226       10.4121568670
  O        34.3045321819       18.2469527141        9.4065221386
  O        31.6532001074       18.3106549562       10.1649196747
  O        30.3207705284       15.1529206227        8.0899484223
  O        28.5494301203       21.0334549460        22.895506978838
  O        28.5116309280       20.9585746130        9.4104739132
  O        27.4516723728       18.6778846152       10.6594237553
  O        26.6908201696       16.9264049740        9.4170210046
  O        13.1475228185       18.6935698658       10.5868765712
  O        13.9194565664       16.9163110658        9.4052595276
  O        50.5958958502       19.3502965690        8.0203798042
  O        47.6840694850       16.3268511833       10.4171180488
  O        46.9519315861       18.1757767440        9.3245752292
  O        11.0696384169       17.0155571469        9.4895480010
  O        47.6750580986       16.3356598021        21.642847140138
  O        46.9262115409       18.2358392407        22.653907940838
  O        49.5683604757       18.3177475974        21.971895380138
  O        10.3185614169       15.1001388772        7.9970334446
  O        52.6707266790       21.0278999080        9.2418178651
  O        12.1467835738       20.8912982939        22.663060717738
  O        13.1053456428       18.6147010908        21.315867680738
  O        13.9573132575       16.9877066473        22.653993726938
  O        29.9935584553       14.4423486518       10.7306487250
  O        28.0892934863       14.6536235561        9.4954481009
  O        32.1381107473       16.8520700780        8.0827959395
  O        30.9641673461       20.9496854515       10.4111264029
  O        32.9445590064       20.6026440194        9.3390448171
  O        29.5668851818       17.0721573973        9.5737408830
  O        30.8531924598       20.8932951729        21.657566375338
  O        32.8719106579       20.5843584424        22.658459207638
  O        31.6758089946       18.2552117608        21.996371549438
  O        28.2367201126       18.6702359688        8.0775991159
  O        32.4923887101       14.2137234711        9.3300651645
  O        32.4063085156       14.2158267193        22.814322220538
  O        29.9126341032       14.4337486913        21.485935935638
  O        28.0328919487       14.5933472447        22.745068826838
  O        17.8892151607        1.9665968337       10.6628042834
  O        18.9561836444        3.5271659939        9.4079884831
  O        39.1684949002       34.1385802526        7.9971607938
  O        43.2801907732       33.0589231539       10.3316478617
  O        42.0343617779       31.5064459583        9.2416062015
  O        20.3176445439        1.0366705697        9.4801790992
  O        43.2760770287       33.1825332127        21.564645048238
  O        42.0052194201       31.5840883668        22.572802227138
  O        40.5789200223       33.7748211701        21.925687164138
  O        22.3673136642        1.3845709492        7.9979384383
  O        36.6728078998       35.0997246301        9.2333015297
  O        16.4456454057        0.0642726134        22.658111259038
  O        17.9364341995        2.0432889999        21.316229152738
  O        18.9190000150        3.5931891320        22.655669485538
  O        29.7673342039       18.9154720480        20.153716396738
  O        29.7011860335       18.9166239533       11.9976844858
  O        31.2218637843       16.2580828679        20.082762202838
  O        31.3465189835       16.3350419711       12.0630033877
  O        32.1066219583       17.0807340098        17.809034875338
  O        29.3691077576       15.9683874875        17.655326426838
  O        30.2116316242       16.1229509386       14.6505789427
  O        31.3035459195       18.9059812484       14.4055566537
  O        27.8789929337       18.3895874539       14.2404200991
  O        39.4568779981       35.2438009304        19.991736364238
  O        19.1418547394        0.0045987116       11.9904920621
  O        41.9695306941       35.1725692172        20.076888242838
  O        21.6913283407       -0.0693727026       11.8959344990
  O        51.3647083507       18.6142948502        19.995039206038
  O        10.7510014464       18.7472266428       11.9048912063
  O        50.0795532852       16.4127629823        20.081501951838
  O         9.5245006781       16.4830995611       11.9911630282
 Zr         9.2963903730       16.0527692238        22.172116156338
 Zr        49.8361359416       16.0065643750        9.7464491235
 Zr        22.0733934582        0.0299873293        22.178648387638
 Zr        42.4609863814       35.1536780303        9.8008687032
 Zr        29.5857654925       19.0991763970        22.305707206938
 Zr        29.5617286521       19.1697898218        9.8719977869
 Zr        11.0372388855       19.0520779745        9.8275051801
 Zr        11.0430279235       19.1550099977        22.240768981938
 Zr        31.3519282584       16.1016551467        9.8769995145
 Zr        31.3747211336       16.0097999857        22.280514961738
 Zr        18.6013011384       -0.0014406471        9.7634466227
 Zr        18.5067746866       -0.0076889743        22.203401584038
 Zr        12.3013109360       16.3233150024        23.979918638938
 Zr        48.6158769492       18.8330837460        8.0099723894
 Zr        20.3155998951        2.4736991751        23.980310903338
 Zr        40.6430500083       32.6869893614        23.967856350938
 Zr        28.3368335800       16.3351076556        8.0805808491
 Zr        32.6261076635       18.8333398504        8.0558551684
  H        28.2273779639       18.6514112105       15.1238611423
  H        28.9530574012       16.8518211394        17.748775084638
  H        29.3273656620       18.8827814598        17.089000349838
