     563
 i =      164, E =     -4694.9872625612
  C        11.8585590471       14.0533553753        21.731318784738
  C        12.4560404909       12.8904374171        21.012946802238
  C        11.7044233520       12.1715435482        20.071207467038
  C        12.2808261029       11.1093128017        19.378907951838
  C        13.6213507193       10.7394122586        19.606796050938
  C        14.3544480018       11.4429486933        20.580345212138
  C        13.7815111397       12.5079166748        21.271822254038
  C        14.2609191539        9.6487274509        18.833448580138
  C        14.2562794594        9.6566147856        17.411747477638
  C        13.7431827862       10.7587681884        16.657839634438
  C        49.1265409670       21.2334941995        21.869474076638
  C        48.5496618840       22.4014176150        21.142517822538
  C        49.2997381828       23.0687861739        20.161578545638
  C        48.7328082092       24.1078937796        19.428351492938
  C        47.4022378657       24.5094651770        19.656912364338
  C        46.6712532276       23.8605673021        20.670388441338
  C        47.2336884705       22.8156591102        21.399759133138
  C        46.7720199639       25.5871346281        18.859588541138
  C        46.7609880436       25.5574294698        17.437829843138
  C        47.2609001460       24.4422898623        16.694391087338
  C        14.8602640945        8.5702764482        16.698513827538
  C        14.8917242625        8.5968148599        19.510131049838
  C        49.1129305989       21.2033832885       10.1452258988
  C        48.5274367714       22.3646514312       10.8724864333
  C        49.2665417834       23.0251297036       11.8656500480
  C        48.6902115493       24.0596659982       12.5971389071
  C        47.3599106840       24.4566846153       12.3586794437
  C        46.6396284717       23.8120089411       11.3349077415
  C        47.2131988917       22.7761425719       10.6030725117
  C        46.7214592306       25.5316667672       13.1496853256
  C        46.7331626077       25.5280798645       14.5713947792
  C        47.2485865666       24.4289007965       15.3278384828
  C        40.6293338759       17.0673344914       15.3253554990
  C        40.6625479019       17.1520613198       12.5168833509
  C        11.8829274453       14.0863431038       10.2855973825
  C        12.4722428552       12.9105543027       10.9898484162
  C        11.7147912499       12.1773069722       11.9159799876
  C        12.2814364585       11.0948517539       12.5843610755
  C        13.6202677265       10.7211471113       12.3524983604
  C        14.3581805540       11.4367640804       11.3916852419
  C        13.7926846588       12.5179142504       10.7190151252
  C        14.2539454513        9.6244147522       13.1228971552
  C        14.2525839228        9.6443129551       14.5447378972
  C        13.7426946194       10.7532566549       15.2917990187
  C        22.5249459760        3.2495508415        21.747485498538
  C        23.2659896523        4.3542158021        21.065053887738
  C        24.2819472201        4.0689083706        20.139554698838
  C        24.9347491582        5.1031178125        19.471211531238
  C        24.5911996049        6.4504763599        19.703830623738
  C        23.6051182119        6.7274859656        20.669129537938
  C        22.9480324613        5.6946456614        21.337158858538
  C        25.2116838476        7.5505948085        18.921125798938
  C        25.1646129376        7.5394440778        17.498391493038
  C        24.4489044900        6.5400018703        16.764778469738
  C        38.2975187631       31.9283243928        21.842421448038
  C        37.5541060917       30.8401233181        21.142486288538
  C        36.5859308279       31.1482676405        20.174180116538
  C        35.9532990071       30.1312984515        19.464312209138
  C        36.2735992346       28.7796645959        19.698987685538
  C        37.2111319433       28.4788845460        20.705184675038
  C        37.8475325271       29.4948833672        21.414782400938
  C        35.6617672700       27.6924542246        18.899803653338
  C        35.7008784170       27.7079729283        17.477996105038
  C        36.4133501892       28.7093079464        16.745426336038
  C        25.7790868791        8.6057923320        16.764598927338
  C        25.8317769200        8.6235350903        19.577238418838
  C        38.3303648354       31.9605763726       10.1610363471
  C        37.6133644001       30.8882227376       10.9119799715
  C        36.6790517003       31.1994284272       11.9121855681
  C        36.0675633765       30.1840207194       12.6458961996
  C        36.3749503999       28.8297165217       12.4045402084
  C        37.2908045606       28.5283796312       11.3774674608
  C        37.9039443258       29.5403659769       10.6446160554
  C        35.7573216082       27.7323870601       13.1867652861
  C        35.7494442657       27.7286347260       14.6096138891
  C        36.4351494252       28.7202479500       15.3790235048
  C        46.1351877995       26.6207739953       15.2814782663
  C        46.0875586659       26.5800393673       12.4735912664
  C        22.4590584752        3.2567596228       10.2650445025
  C        23.1478882980        4.3620631690       11.0007776077
  C        24.1462913625        4.0697642324       11.9442151301
  C        24.7750400523        5.0941569321       12.6487309087
  C        24.4266894610        6.4430200401       12.4341076780
  C        23.4469854764        6.7282628235       11.4634476939
  C        22.8141232619        5.7041366035       10.7587258305
  C        25.0709828868        7.5385604709       13.2033304525
  C        25.0926697164        7.5323282753       14.6269353320
  C        24.4136483426        6.5370180337       15.3983410564
  C        26.5420595212       17.8463988192        21.789841640838
  C        25.2409730529       17.8897655779        21.064732001638
  C        24.9857846571       18.8910826668        20.114521886738
  C        23.7823191866       18.9041793017        19.415047573438
  C        22.8006995355       17.9207066263        19.647360787738
  C        23.0496454014       16.9435928689        20.629179924838
  C        24.2562253938       16.9236048407        21.325168641938
  C        21.5378379902       17.9053036915        18.872407880738
  C        21.5495284467       17.8958577985        17.450696286138
  C        22.7608926594       17.7779679529        16.698701714938
  C        34.3721477259       17.2037859744        21.827381752238
  C        35.6664282269       17.0980132831        21.098922611238
  C        35.8633855729       16.1253915070        20.105928700238
  C        37.0608518073       16.0807109206        19.395211348438
  C        38.0918699875       17.0055276429        19.656079882038
  C        37.8975683860       17.9519838156        20.680480722738
  C        36.7010296851       18.0025643642        21.388765293938
  C        39.3546497271       17.0082459361        18.882103669338
  C        39.3589766943       17.0428197530        17.460357839438
  C        38.1566754413       17.1767808779        16.696803229638
  C        20.3076202589       17.9209385161        16.735782926138
  C        20.3111322817       17.9020064814        19.548162579938
  C        34.4826800998       17.2478526334       10.1751318747
  C        35.7875935077       17.1709055206       10.8921991520
  C        36.0029825938       16.1731376601       11.8548048223
  C        37.1878630646       16.1457258208       12.5836561915
  C        38.1854403578       17.1166737072       12.3714464503
  C        37.9771275372       18.0902557357       11.3766708859
  C        36.7900842007       18.1216894754       10.6489810368
  C        39.4281725901       17.1242000465       13.1738091915
  C        39.3966811863       17.1036140148       14.5947857495
  C        38.1743691753       17.2042410602       15.3307419568
  C        35.1092810069       26.6516785359       15.3095759477
  C        35.1730515766       26.6603256047       12.4996214005
  C        26.5674994864       17.8279414574       10.3265893977
  C        25.2554246786       17.8712206028       11.0311799962
  C        24.9862395659       18.8819782938       11.9661326677
  C        23.7685512397       18.9061896729       12.6388495127
  C        22.7910360514       17.9212164942       12.3965049821
  C        23.0534685868       16.9355401708       11.4281816406
  C        24.2730152564       16.9076669485       10.7556554571
  C        21.5253585231       17.9054643990       13.1639116367
  C        21.5425398542       17.8945063999       14.5849294782
  C        22.7572739403       17.7766567421       15.3324033532
  C        14.0457555939       17.8319173479       10.2833242069
  C        15.3529885063       17.8954184045       10.9985917663
  C        15.6145850501       18.9078210219       11.9344374514
  C        16.8260062843       18.9315079429       12.6216984763
  C        17.8064697620       17.9451610280       12.3942044755
  C        17.5511916275       16.9590471660       11.4232654351
  C        16.3395239053       16.9310949710       10.7372155817
  C        19.0716095651       17.9239997932       13.1659082911
  C        19.0612505264       17.9170691153       14.5873328443
  C        17.8483577261       17.8212481049       15.3395103666
  C        46.8074233450       17.2199690593       10.1606698644
  C        45.5219302819       17.1605521718       10.9129787589
  C        45.3197303174       16.1794985034       11.8958807262
  C        44.1416054794       16.1598949696       12.6371043813
  C        43.1366819248       17.1219384883       12.4173179879
  C        43.3376374522       18.0851129982       11.4099921172
  C        44.5161845553       18.1080388041       10.6691616470
  C        41.8823503738       17.1237933894       13.2027774990
  C        41.8800932831       17.0965468500       14.6244742891
  C        43.0840213970       17.1820603255       15.3919356385
  C        20.3035856320       17.9202218418       15.3021159160
  C        20.2981217140       17.8993369577       12.4898528091
  C        46.7801283795       17.2260636389        21.881815406738
  C        45.4716083496       17.1008232986        21.174643885038
  C        45.2613133561       16.0928914289        20.220679377038
  C        44.0701858629       16.0429302592        19.500048642338
  C        43.0564537652       16.9969822984        19.715303565238
  C        43.2562505545       17.9731618517        20.709809644438
  C        44.4493876233       18.0299213819        21.425336273238
  C        41.8108426162       17.0020076157        18.912833566738
  C        41.8436677030       17.0325151055        17.491317959838
  C        43.0665786696       17.1510652715        16.758150148638
  C        46.1529868219       26.6372786342        16.716027585138
  C        46.1621334381       26.6563140253        19.525672257638
  C        14.0380499826       17.8265698362        21.695399594438
  C        15.3499515286       17.8905915731        20.992815041238
  C        15.6220286018       18.9113214115        20.070253798738
  C        16.8449563773       18.9428067536        19.405590813838
  C        17.8190103087       17.9523907503        19.639916692338
  C        17.5525770659       16.9575076666        20.597370524138
  C        16.3320783636       16.9257289203        21.265903912838
  C        19.0847485182       17.9289399822        18.873371000338
  C        19.0682509008       17.9189264481        17.452680044738
  C        17.8518166206       17.8218302803        16.705458495338
  C        28.8052092914       14.0878567314       10.3945329133
  C        28.1947642737       12.9086445660       11.0743550463
  C        28.9232640303       12.1642000802       12.0143041441
  C        28.3286783699       11.0864220471       12.6653053021
  C        26.9899881087       10.7289000087       12.4045313231
  C        26.2835482203       11.4526773968       11.4266947687
  C        26.8766213335       12.5299324256       10.7719632699
  C        26.3275170213        9.6505756125       13.1756380922
  C        26.3399249053        9.6774438638       14.5972869560
  C        26.8515654886       10.7934763775       15.3320585242
  C        32.1798429179       21.2427953277       10.1493156898
  C        32.7745380693       22.4055941225       10.8696154356
  C        32.0216599539       23.0845264262       11.8406574876
  C        32.5884288859       24.1257785794       12.5691843050
  C        33.9239657751       24.5165448298       12.3500796599
  C        34.6592139182       23.8555828758       11.3476120639
  C        34.0950846683       22.8092027012       10.6198978445
  C        34.5480817464       25.5927905766       13.1544413795
  C        34.5241630967       25.5673062120       14.5766662176
  C        34.0075953877       24.4539836167       15.3120834588
  C        25.7452236259        8.5995208542       15.3290677777
  C        25.6762908351        8.6001855203       12.5154970859
  C        32.0740061294       21.1954857644        21.863752161838
  C        32.6392201728       22.3663247830        21.133055881938
  C        31.9087198428       23.0030909550        20.117292209538
  C        32.4790226175       24.0450758746        19.388181474538
  C        33.7939659839       24.4792545471        19.651407306438
  C        34.5035434021       23.8567304795        20.697317686538
  C        33.9389354814       22.8121548123        21.423585314938
  C        34.4352569538       25.5626996559        18.868672181138
  C        34.4649832439       25.5523458914        17.445702790438
  C        33.9780476817       24.4473706308        16.678656316938
  C        40.6105332055       17.0349301897        16.759711868038
  C        40.5748351544       17.0054596674        19.569624601638
  C        28.8342014821       14.1398638282        21.750205198738
  C        28.2500485786       12.9827463089        21.008400139638
  C        28.9721316703       12.3020937823        20.015335955638
  C        28.4004278939       11.2192361405        19.346970688538
  C        27.0888510598       10.7883942063        19.639439219938
  C        26.3861618374       11.4601111724        20.658286133838
  C        26.9553223986       12.5390147687        21.330230690438
  C        26.4397491752        9.6837579517        18.886932695238
  C        26.3984301027        9.6942143542        17.464471421238
  C        26.8765696238       10.8030577491        16.697437941238
  C        18.1357948765        3.1810014905       10.3169739710
  C        17.4065351299        4.2782867285       11.0155533225
  C        16.3906423747        3.9999007639       11.9428846097
  C        15.7429477490        5.0398427373       12.6064635884
  C        16.0950528385        6.3835703459       12.3670913998
  C        17.0846284056        6.6531287848       11.4035248781
  C        17.7337070750        5.6158226019       10.7383785526
  C        15.4705922753        7.4911832639       13.1301863385
  C        15.4856700012        7.4903656996       14.5519127605
  C        16.1871383306        6.4967118379       15.3051175175
  C        42.9457540273       31.8595857729       10.0728323968
  C        43.6461504931       30.7718677570       10.8167049167
  C        44.5916416047       31.0931465122       11.8028259362
  C        45.1973164182       30.0875662681       12.5504732795
  C        44.8708416114       28.7345153248       12.3356029728
  C        43.9450972073       28.4202168001       11.3222996438
  C        43.3363218276       29.4253905598       10.5742675315
  C        45.4883554114       27.6551944070       13.1388177724
  C        45.4924977269       27.6808818426       14.5605121542
  C        44.8054590429       28.6889890733       15.3071023803
  C        14.8565917959        8.5627942488       15.2642823392
  C        14.8753147642        8.5629669423       12.4516067269
  C        42.9464260211       31.9619189810        21.798772686438
  C        43.6916458652       30.8857772193        21.085254043538
  C        44.6562207603       31.1916497806        20.112924284938
  C        45.2776821284       30.1720405672        19.395169607838
  C        44.9538654720       28.8217326837        19.632803439338
  C        44.0203843266       28.5241012240        20.643592195738
  C        43.3921869791       29.5408847766        21.355798352138
  C        45.5628418346       27.7242834669        18.847571131738
  C        45.5330853243       27.7175041045        17.426275839038
  C        44.8267633115       28.7077042246        16.673286292838
  C        35.0816407779       26.6426484350        16.745138853338
  C        35.0460658867       26.6203080481        19.555610754138
  C        18.1489230204        3.2469838813        21.696591171438
  C        17.4301630336        4.3438212775        20.987522306538
  C        16.4149315305        4.0524341802        20.063981392638
  C        15.7665900151        5.0829726069        19.388496194038
  C        16.1211349805        6.4282605601        19.611146552138
  C        17.1124181916        6.7117498363        20.568481352038
  C        17.7601649072        5.6829333683        21.248349309738
  C        15.4905926207        7.5238704638        18.838585950238
  C        15.4964819334        7.5071844238        17.417436183638
  C        16.1932539422        6.5054878700        16.670732775138
  H        10.6723363529       12.4657417799        19.894060493638
  H        11.6945894869       10.5508548018        18.652309433038
  H        15.3914565979       11.1683284653        20.762175524538
  H        14.3509145431       13.0710372926        22.007388237338
  H        13.3762477019       11.6309313703        17.191137775238
  H        50.3224773558       22.7488002974        19.976918140938
  H        49.3193201214       24.6231971080        18.670819316138
  H        45.6417461488       24.1613219639        20.853506312638
  H        46.6626464580       22.2903455785        22.161784094338
  H        47.6294815299       23.5759551268        17.236116817538
  H        14.8721026176        8.5881064637        20.598439455538
  H        50.2865013622       22.7021008565       12.0607249351
  H        49.2685571146       24.5749554177       13.3607904533
  H        45.6103338455       24.1094907543       11.1456237551
  H        46.6525078973       22.2542378286        9.8312361946
  H        47.6073665357       23.5517488937       14.7969978462
  H        40.6750785427       17.1403703484       11.4287439324
  H        48.6872021225       14.0949521016        23.789839325538
  H        10.6813132273       12.4663303896       12.0934219763
  H        11.6896806602       10.5244055321       13.2970462148
  H        15.3936506138       11.1590046859       11.2057715655
  H        14.3650480093       13.0873319425        9.9905417911
  H        13.3759872948       11.6219169338       14.7531575830
  H        47.9302358219       14.2179577706        9.7106746018
  H        47.7801323358       14.3743468342        22.485230074038
  H        49.0838220127       18.5529128079       10.8672648738
  H        10.4158802182       14.1342575268        7.9986604783
  H        24.5380547873        3.0286118575        19.951024251938
  H        25.7186264787        4.8748438856        18.752095472838
  H        23.3282440005        7.7623136602        20.860148566638
  H        22.1656300460        5.9061445852        22.062233018338
  H        23.8969228491        5.7839055818        17.315401927038
  H        36.3540888520       32.1926679876        19.979260498638
  H        35.2036133707       30.3754111890        18.714809792938
  H        37.4667633589       27.4384117944        20.894882166038
  H        38.5967936102       29.2688490112        22.169883662638
  H        36.9742720570       29.4592351191        17.295454816938
  H        25.8824977140        8.6100228935        20.664671462538
  H        36.4508107105       32.2440787963       12.1113992588
  H        35.3363236511       30.4334803785       13.4116386648
  H        37.5428923065       27.4878170790       11.1838399513
  H        38.6311199613       29.3101764113        9.8696645147
  H        37.0136799734       29.4781883564       14.8586237701
  H        46.1090274893       26.5874378272       11.3855560330
  H        44.6682255052       35.1161318045        23.803652082638
  H        24.4230009813        3.0303115031       12.1054184607
  H        25.5554724097        4.8576229948       13.3688354297
  H        23.1635966897        7.7641559245       11.2883455433
  H        22.0444905893        5.9246133790       10.0225126558
  H        23.8334059003        5.7795032010       14.8792700577
  H        44.9536725247       34.3904397546        9.6951292385
  H        44.9006512226       34.2065005653        22.480355914838
  H        40.6662405897       33.2096184138       10.8532488107
  H        23.1515251034        1.9579752954        8.0077899491
  H        25.7403030615       19.6542340562        19.938854521338
  H        23.5867721240       19.6838719465        18.682128581138
  H        22.2997128745       16.1773610016        20.814521622938
  H        24.4641873651       16.1556855356        22.066477451338
  H        23.6990265145       17.6559088555        17.232535792138
  H        35.0644612773       15.4177645830        19.895993000838
  H        37.2106778864       15.3214016957        18.630781666038
  H        38.6846562314       18.6737160741        20.888617964938
  H        36.5369787915       18.7500483834        22.161100513938
  H        37.2131765616       17.2916256390        17.222308070838
  H        20.3114910735       17.9328841352        20.636231811938
  H        35.2208134663       15.4387093322       12.0311631060
  H        37.3533830992       15.3693564541       13.3273557205
  H        38.7412320954       18.8465305783       11.2091903795
  H        36.6073619289       18.8912689162        9.9027063706
  H        37.2449666924       17.3388340870       14.7847290846
  H        35.1579185166       26.6839281298       11.4116043583
  H        28.5091895849       21.0858739361        23.880555943438
  H        25.7419660244       19.6426400343       12.1470030657
  H        23.5589151733       19.6923617492       13.3608667055
  H        22.3051692982       16.1691905992       11.2369093494
  H        24.4932821998       16.1350859525       10.0229840275
  H        23.6928189650       17.6537918915       14.7946081455
  H        28.9775819472       21.7281661770        9.7626915609
  H        29.1676649402       21.7282513592        22.537772534938
  H        32.0918314296       18.5594669291       10.9908311537
  H        27.4065123889       19.0807765244        8.0866727327
  H        14.8577381521       19.6693643793       12.1084019395
  H        17.0274322779       19.7202127808       13.3434086776
  H        18.3002672858       16.1914679324       11.2400070743
  H        16.1273985991       16.1568761788       10.0038046719
  H        16.9088409820       17.7142124914       14.8053430857
  H        46.1024708848       15.4451911991       12.0708158660
  H        43.9836394842       15.3897248522       13.3888406628
  H        42.5699566857       18.8366056899       11.2376122625
  H        44.6878777517       18.8646298254        9.9071091688
  H        44.0285733796       17.3071163081       14.8701395176
  H        20.2981847527       17.9298322522       11.4017505216
  H        46.0482212469       15.3632699816        20.043682745638
  H        43.9138621803       15.2614699327        18.759518448838
  H        42.4798367004       18.7151317462        20.884542661038
  H        44.6223659409       18.8042633384        22.168896972238
  H        43.9977062972       17.2513397205        17.308238952238
  H        46.1990242784       26.6829256946        20.613114513538
  H        52.7412838585       21.0626664331        8.1946311912
  H        14.8662435831       19.6732447701        19.893181663338
  H        17.0600175102       19.7372961151        18.694278693838
  H        18.2986295696       16.1873142028        20.781727882538
  H        16.1078336687       16.1476828290        21.991447541838
  H        16.9148912181       17.7152726403        17.243982103338
  H        52.3227524493       21.6738048251        22.284381186938
  H        52.0136991445       21.7027246791        9.4954747016
  H        49.0662469798       18.6070472331        21.193978544338
  H        13.2470225490       19.0161288964        23.965598017638
  H        29.9522137113       12.4475352603       12.2238254581
  H        28.8960701806       10.5103804399       13.3930466127
  H        25.2491287266       11.1884929933       11.2166038314
  H        26.3261926843       13.1098871342       10.0352215962
  H        27.1964683099       11.6657924908       14.7851332122
  H        30.9967691873       22.7691320203       12.0208965272
  H        31.9989027698       24.6503920078       13.3178657660
  H        35.6929793243       24.1463593804       11.1723373490
  H        34.6702458383       22.2749002534        9.8672403377
  H        33.6592068514       23.5825334307       14.7650502898
  H        25.6861629693        8.5795925759       11.4271405613
  H        30.9006076585       22.6568864720        19.899598577538
  H        31.9043436127       24.5373407614        18.606680591338
  H        35.5210202647       24.1785456124        20.909369584638
  H        34.4971842220       22.3109934090        22.210701981938
  H        33.6071854146       23.5703598747        17.201499909838
  H        40.5618021004       16.9580857608        20.656952755638
  H        32.5292797957       14.1317451885        8.3556724432
  H        29.9827951176       12.6303069586        19.782379088038
  H        28.9731474409       10.6902488375        18.588289891638
  H        25.3710550735       11.1477256638        20.894648308138
  H        26.4041013289       13.0661057395        22.104925327738
  H        27.2384480362       11.6840882432        17.219131355738
  H        33.2800472699       14.1267969965        22.471910672538
  H        33.4042390306       14.4330291940        9.6937541260
  H        32.1065782949       18.4881042160        21.059780396238
  H        30.2313787832       14.1846776863        8.1226046009
  H        16.1184016060        2.9634042716       12.1290491012
  H        14.9533438718        4.8204205526       13.3219408053
  H        17.3672430650        7.6860009992       11.2106547950
  H        18.5158796519        5.8185476439       10.0106915646
  H        16.7537610570        5.7393986324       14.7716451139
  H        44.8279611010       32.1402170113       11.9770358648
  H        45.9371711353       30.3412866207       13.3064402497
  H        43.6824204264       27.3781539142       11.1521191434
  H        42.5998107093       29.1900946263        9.8094867474
  H        44.2301250860       29.4367508870       14.7687697283
  H        14.8517184376        8.5462816818       11.3633816230
  H        44.8998134770       32.2343188055        19.921474413338
  H        46.0245773569       30.4132509346        18.641914908538
  H        43.7633794576       27.4843814675        20.835151439338
  H        42.6456887186       29.3181055363        22.114249058638
  H        44.2683070100       29.4706512614        17.207841661638
  H        34.9974138716       26.6336051068        20.642850921138
  H        36.6053241291       35.1341439664        8.1808490966
  H        16.1439251324        3.0128367338        19.894283426938
  H        14.9743029427        4.8560171252        18.678404430138
  H        17.3958663098        7.7472398214        20.745342023538
  H        18.5430576387        5.8935364225        21.973052296638
  H        16.7646723633        5.7552364930        17.209173530938
  H        36.2790999115       34.4822641548        22.263084410538
  H        36.3817602209       34.2087726092        9.4995292289
  H        40.5792116473       33.2026181364        21.143582738438
  H        17.4720826781        1.9474239194        23.964060536238
  H        28.7831326629       19.0853309999       12.2994823422
  H        28.5269856532       18.7611034810        19.841568039238
  H        31.3157652186       15.5985511029       12.5431548960
  H        29.3068126743       15.6713789787       14.4330256647
  H        32.3493534858       17.4165654570        17.526605939138
  H        18.8537518621        0.8688802840       12.3355365480
  H        40.5276379912       35.2290505627        19.941643288138
  H        42.3250965398       34.4196300894        19.580213940138
  H        22.0878392376        0.6921533718       12.3510245856
  H        11.5967456996       18.7125716608       12.3824835789
  H        52.2649185357       18.4315044918        19.667427104938
  H        49.2552813576       16.4768821511        19.573778541138
  H        10.1497801724       15.7984141714       12.2930129793
  H        50.8501100126       17.6927113043        19.943761920938
  H        10.0457565386       17.3946760797       12.0518874511
  H        20.2154452432        0.0024022939       12.0419257747
  H        39.1836219939       36.1244619743        19.676070350038
 Ni        30.3502262204       17.9657570475        18.567929462638
 Ni        30.9012569868       16.4239196104       15.987392066638
 Ni        29.9297769357       18.3604925327       15.656766719938
 Ni        30.1390503690       17.4483414540       13.1645226951
  O        10.6497922441       14.3651979230        21.475521763338
  O        12.6130258667       14.6572946602        22.573596191538
  O        49.1477303205       16.8460133697        23.979294689638
  O        50.3500143556       20.9365079990        21.638041526738
  O        48.3484050503       20.5932716143        22.655666992438
  O        11.0510342562       17.0541139266        22.490373163238
  O        50.3206784400       20.8816674328       10.4068871706
  O        48.3465939057       20.5866238124        9.3269739272
  O        49.5435151830       18.2484716385       10.0681473110
  O        12.3584665287       18.6246934276        7.9997398799
  O        48.6932270803       14.1485813340        22.741081962238
  O         8.2099425581       14.2102710086        9.3224332542
  O        10.7353317744       14.5067152108       10.6643966704
  O        12.5717185194       14.5826466524        9.3285958915
  O        22.8464398007        2.0460847161        21.476046210438
  O        21.6097756507        3.5955651596        22.576050977338
  O        42.0581010784       34.1375702770        23.968375983238
  O        37.9812256298       33.1369790816        21.562313197138
  O        39.2173881403       31.5754123952        22.655530271338
  O        20.3087347168        1.0402805389        22.492242232738
  O        38.0243583287       33.1849151730       10.4157783129
  O        39.2181019630       31.5826949152        9.3278369376
  O        40.6521870184       33.7693890502       10.0599884057
  O        18.2565809556        1.3759676097        7.9968013334
  O        44.6221798314       35.1006090838        22.748462530338
  O        24.2053412762        0.0000928041        9.3206879143
  O        22.7533392803        2.0573992505       10.5846287655
  O        21.6260353574        3.5981505512        9.3471935483
  O        27.4126323790       18.7476955000        21.495359673038
  O        26.6985962656       16.9230047562        22.656621104538
  O        30.6890328146       19.3426785385        8.0038277084
  O        33.4590110602       16.3331748825        21.562982991438
  O        34.2548295619       18.1684757501        22.654968572338
  O        29.5666692997       17.0510177183        22.579384896138
  O        33.6247596916       16.3337766913       10.4081869230
  O        34.3049776267       18.2500579755        9.3984115392
  O        31.6528280005       18.3190773312       10.1565642656
  O        30.3278252443       15.1512361677        8.1461536078
  O        28.5504693393       21.0311844863        22.825516260338
  O        28.5156853528       20.9538628482        9.3996798705
  O        27.4549892980       18.6813167121       10.6552363494
  O        26.6932968880       16.9304168777        9.4137095640
  O        13.1470993620       18.6935390426       10.5862566838
  O        13.9176401752       16.9157795000        9.4035695472
  O        50.5956012981       19.3502914992        8.0204765091
  O        47.6845501255       16.3266852729       10.4168988415
  O        46.9516690888       18.1757677829        9.3246872524
  O        11.0690028289       17.0159317404        9.4896820006
  O        47.6754259033       16.3356580099        21.643215073538
  O        46.9224423094       18.2353228357        22.651500648738
  O        49.5684026486       18.3177955983        21.971842431238
  O        10.3185934961       15.1001116760        7.9970978716
  O        52.6707150314       21.0280114850        9.2418032208
  O        12.1467952458       20.8914246071        22.663110423838
  O        13.1042431274       18.6142092569        21.316222391438
  O        13.9540716851       16.9859221144        22.655726313138
  O        29.9871401665       14.4407394121       10.7374824033
  O        28.0874140846       14.6535460346        9.4950466995
  O        32.1466833364       16.8596603301        8.0862631567
  O        30.9665604576       20.9501456899       10.4062656616
  O        32.9468086597       20.6043507136        9.3370879450
  O        29.5661190304       17.0762417185        9.5729338823
  O        30.8516987792       20.8773001107        21.641643948938
  O        32.8702606739       20.5729873961        22.648890790738
  O        31.5710822418       18.1764555148        21.808243608538
  O        28.2903168645       18.6778605674        8.0657211628
  O        32.4950218023       14.2127857696        9.4146240671
  O        32.4081951214       14.2124870203        22.891096643538
  O        29.9919709314       14.5842558048        21.403763983538
  O        28.1342040420       14.5896129952        22.725645105738
  O        17.8893625201        1.9666651637       10.6626619194
  O        18.9565624810        3.5271314458        9.4077104900
  O        39.1685542227       34.1386035670        7.9971471573
  O        43.2802095271       33.0589813908       10.3316227972
  O        42.0343586785       31.5065170689        9.2415670432
  O        20.3181343748        1.0374881468        9.4794898742
  O        43.2760905740       33.1828850877        21.564742827338
  O        42.0052396743       31.5842070370        22.572753040538
  O        40.5791565172       33.7755017014        21.925569400438
  O        22.3678257448        1.3855144611        7.9976436334
  O        36.6729666926       35.0997181044        9.2334207219
  O        16.4457997073        0.0643278025        22.658064061738
  O        17.9365336747        2.0434150349        21.316335243238
  O        18.9197515315        3.5931211010        22.655759032738
  O        29.4876582202       18.8382236163        19.998944286238
  O        29.6964420838       18.9076271221       12.0021672672
  O        31.3873157898       16.4087538793       11.9997554158
  O        31.5642223594       16.8501841722        17.656454799838
  O        30.2474992457       15.9092995324       14.3248009086
  O        39.4567298903       35.2438670721        19.991765777738
  O        19.1418929199        0.0046567481       11.9904060573
  O        41.9697069295       35.1728785287        20.077061152938
  O        21.6912046666       -0.0693892865       11.8957457593
  O        51.3648606824       18.6144208301        19.995017481838
  O        10.7509349652       18.7471432047       11.9049841983
  O        50.0794692191       16.4127132050        20.081418705438
  O         9.5239483134       16.4831833816       11.9912098717
 Zr         9.2971106894       16.0529353313        22.171945759838
 Zr        49.8366834182       16.0067034895        9.7463965114
 Zr        22.0733570661        0.0312329065        22.178118123638
 Zr        42.4608759826       35.1537510417        9.8006764850
 Zr        29.5592321392       19.0705408529        22.201734548238
 Zr        29.5866458645       19.1814099899        9.8494638125
 Zr        11.0377646931       19.0523244869        9.8278043057
 Zr        11.0435379349       19.1552592996        22.240841263138
 Zr        31.3371463707       16.1064546822        9.9389108890
 Zr        31.4065107045       16.0193423015        22.407854661338
 Zr        18.6015234081       -0.0011311090        9.7633260461
 Zr        18.5067683943       -0.0074238465        22.203673115538
 Zr        12.3011964942       16.3232174036        23.980510198038
 Zr        48.6162681160       18.8329875646        8.0092941974
 Zr        20.3175320768        2.4754184279        23.979923148338
 Zr        40.6432552238       32.6870774828        23.967798923338
 Zr        28.3327044917       16.3440978337        8.0967970359
 Zr        32.6355277985       18.8637389676        8.0615215136
  H        29.4334457749       18.2455695666        17.177727290338
