     573
 i =       97, E =     -4762.8205456032
  C        11.8588536595       14.0534289023        21.731341300538
  C        12.4562939638       12.8905717405        21.013133577138
  C        11.7046695761       12.1717093278        20.071335777338
  C        12.2810835307       11.1095382746        19.379005294938
  C        13.6216461624       10.7396695289        19.606814778838
  C        14.3547329803       11.4431793024        20.580402062538
  C        13.7818216591       12.5081264906        21.271919530938
  C        14.2611582617        9.6490240268        18.833397716538
  C        14.2562879309        9.6569128076        17.411703728238
  C        13.7431350179       10.7590399724        16.657793586238
  C        49.1268885081       21.2331233977        21.869456995738
  C        48.5502328849       22.4011273604        21.142517277738
  C        49.3000962093       23.0680880830        20.161131188738
  C        48.7331938860       24.1072537671        19.427954722338
  C        47.4028346194       24.5093481493        19.656928180338
  C        46.6721368656       23.8609282576        20.670942838338
  C        47.2345413117       22.8160056299        21.400286828938
  C        46.7725287662       25.5869663498        18.859621030438
  C        46.7614935421       25.5572847380        17.437857145638
  C        47.2614799220       24.4422400854        16.694320424938
  C        14.8602231810        8.5705891031        16.698420829938
  C        14.8920594618        8.5971327240        19.510036622138
  C        49.1132352077       21.2034777295       10.1453444766
  C        48.5279817746       22.3649232285       10.8723287760
  C        49.2670701842       23.0252385506       11.8656360930
  C        48.6908038715       24.0598101463       12.5971058784
  C        47.3605713431       24.4570465286       12.3585593130
  C        46.6404011921       23.8126476115       11.3345183073
  C        47.2138700560       22.7767298234       10.6026998372
  C        46.7220870930       25.5319194168       13.1496624566
  C        46.7337481432       25.5281514001       14.5713715265
  C        47.2492214784       24.4289622647       15.3277653305
  C        40.6182599627       17.0810502518       15.3197397829
  C        40.6350313300       17.0967273681       12.5098932516
  C        11.8830357568       14.0864516717       10.2855727675
  C        12.4722511966       12.9107147176       10.9896995897
  C        11.7148372644       12.1776632344       11.9160478618
  C        12.2814389042       11.0952137969       12.5844160356
  C        13.6202007454       10.7213032826       12.3524026536
  C        14.3580348441       11.4366902527       11.3913429834
  C        13.7926102956       12.5178623971       10.7186763471
  C        14.2537969586        9.6245786881       13.1228205981
  C        14.2524025571        9.6445505712       14.5446554540
  C        13.7425658142       10.7535047386       15.2917490489
  C        22.5129536534        3.2443926021        21.742968871538
  C        23.2298855716        4.3481794277        21.043870521438
  C        24.2251679569        4.0654482256        20.096542117738
  C        24.8547429906        5.1031053172        19.414049292438
  C        24.5050437874        6.4459975728        19.658523651138
  C        23.5381707891        6.7201329284        20.643091757638
  C        22.9038340154        5.6843232696        21.324051458738
  C        25.1122530033        7.5513590867        18.882224344838
  C        25.0812758928        7.5458624220        17.460814324738
  C        24.3774797084        6.5473020484        16.715410472338
  C        38.2997869286       31.9292308276        21.843915429138
  C        37.5633149790       30.8368736913        21.146278456238
  C        36.5940909225       31.1352907830        20.176590464238
  C        35.9734378403       30.1107188720        19.467626617538
  C        36.3085292248       28.7633614425        19.705601995638
  C        37.2456945864       28.4722800354        20.714476322938
  C        37.8697081754       29.4954804875        21.423082678938
  C        35.7107573844       27.6698319827        18.907460238638
  C        35.7422902727       27.6904255507        17.486233661838
  C        36.4466158581       28.6974436480        16.753480909938
  C        25.7020631182        8.6171214430        16.740842978738
  C        25.7127990024        8.6243639530        19.552419400438
  C        38.3305410489       31.9610746330       10.1616011969
  C        37.6134061135       30.8904634592       10.9146746499
  C        36.6865932084       31.2049617762       11.9208340683
  C        36.0753518568       30.1917831705       12.6578045986
  C        36.3748208148       28.8365387689       12.4127753653
  C        37.2826674096       28.5319520600       11.3795413241
  C        37.8963343056       29.5417406919       10.6440999487
  C        35.7577351456       27.7399708819       13.1966177183
  C        35.7654568887       27.7272375850       14.6192424080
  C        36.4582991566       28.7149049273       15.3872005342
  C        46.1356002097       26.6206920842       15.2815439441
  C        46.0881311756       26.5803160907       12.4736489320
  C        22.4609826949        3.2558899333       10.2575237592
  C        23.1548631852        4.3643284586       10.9800923295
  C        24.1569026417        4.0782658359       11.9210121117
  C        24.7845422984        5.1084038689       12.6170982260
  C        24.4303254901        6.4543030901       12.3950572389
  C        23.4516194412        6.7335366767       11.4223545735
  C        22.8193381498        5.7037147539       10.7266451332
  C        25.0606942122        7.5524481558       13.1692231372
  C        25.0554156489        7.5457134908       14.5920325787
  C        24.3634332254        6.5480800197       15.3488065152
  C        26.6122682293       17.8592122513        21.774205619538
  C        25.3062714438       17.9089319776        21.051617831438
  C        25.0341673389       18.9234329352        20.119756210138
  C        23.8230021376       18.9413911736        19.430579636438
  C        22.8457116387       17.9505968254        19.654475706638
  C        23.1121606879       16.9597401417        20.618348302538
  C        24.3262956315       16.9346398585        21.303059307238
  C        21.5735013316       17.9369607913        18.887949441938
  C        21.5757203048       17.9226912755        17.465439131838
  C        22.7830555130       17.8088492786        16.706387648438
  C        34.4093748471       17.2426654304        21.885967259338
  C        35.7086793734       17.1735320414        21.155972809338
  C        35.9140320618       16.1905420770        20.174701077338
  C        37.0983068914       16.1632735547        19.443232551838
  C        38.1103717715       17.1162771981        19.672462746038
  C        37.9078904643       18.0780440948        20.680610616038
  C        36.7202068947       18.1122347150        21.408600877738
  C        39.3661848285       17.1133140940        18.886348956738
  C        39.3614787810       17.1155032590        17.464239100738
  C        38.1543111871       17.2343738460        16.705559701038
  C        20.3298084522       17.9369886824        16.755555041838
  C        20.3484835724       17.9336380130        19.569268270238
  C        34.4453657518       17.2296232276       10.1962298282
  C        35.7455339813       17.1277619726       10.9166087184
  C        35.9495169643       16.1468694385       11.8988984293
  C        37.1400459998       16.1155188352       12.6210481260
  C        38.1547994844       17.0633220589       12.3814624454
  C        37.9563743376       18.0165691582       11.3651693858
  C        36.7656191173       18.0535204478       10.6461659770
  C        39.4035794822       17.0801623797       13.1754660030
  C        39.3806131400       17.0985926573       14.5967329239
  C        38.1634892096       17.2234412918       15.3388891545
  C        35.1331887788       26.6454812737       15.3194484866
  C        35.1597759975       26.6756077432       12.5096964909
  C        26.5721805366       17.8261952085       10.3223799599
  C        25.2575653417       17.8725288775       11.0289754663
  C        24.9915113707       18.8826541756       11.9657092645
  C        23.7742361519       18.9097397726       12.6403703919
  C        22.7932756580       17.9267537152       12.4013389996
  C        23.0530952218       16.9416770815       11.4313560232
  C        24.2714059399       16.9124034190       10.7552250622
  C        21.5298709590       17.9101883032       13.1749840310
  C        21.5532137687       17.9063318424       14.5967131522
  C        22.7718001538       17.7998348835       15.3399845555
  C        14.0470406025       17.8290972615       10.2885809608
  C        15.3517520076       17.8866385083       11.0129878364
  C        15.6083104884       18.8893675994       11.9611719479
  C        16.8175627449       18.9102916384       12.6535083257
  C        17.8047044480       17.9314508466       12.4198942957
  C        17.5530415860       16.9532356550       11.4393204224
  C        16.3431730124       16.9276248206       10.7486083239
  C        19.0736067672       17.9149485719       13.1891208005
  C        19.0715383429       17.9131789878       14.6115700410
  C        17.8641615584       17.8112262045       15.3718422752
  C        46.8029674696       17.2173059324       10.1590403686
  C        45.5112314264       17.1487432231       10.9045977111
  C        45.3095390714       16.1666902397       11.8871229951
  C        44.1271827334       16.1380006447       12.6225215600
  C        43.1145022907       17.0911872008       12.3983501434
  C        43.3136454553       18.0534364332       11.3895411442
  C        44.4970317348       18.0859964968       10.6549753684
  C        41.8600328100       17.0918913294       13.1876597076
  C        41.8651435926       17.0946013423       14.6102325969
  C        43.0736296544       17.1938892973       15.3691239827
  C        20.3178329183       17.9281689181       15.3206918199
  C        20.2982278231       17.8951360120       12.5077412238
  C        46.7838307110       17.2309583363        21.878480896338
  C        45.4787746388       17.1236341889        21.163645007038
  C        45.2573991964       16.1209965217        20.207173104538
  C        44.0681122412       16.0913919040        19.482412560438
  C        43.0693586498       17.0614009373        19.696349301338
  C        43.2811893166       18.0342379110        20.691298366538
  C        44.4716222443       18.0699909058        21.411253905838
  C        41.8216233474       17.0804073754        18.899720051738
  C        41.8454945167       17.0873830016        17.478257896538
  C        43.0643611333       17.1869577824        16.735832601238
  C        46.1533490571       26.6370887780        16.716100797838
  C        46.1625465415       26.6560973632        19.525740373138
  C        14.0450228554       17.8309970562        21.698054125238
  C        15.3650073296       17.9037784021        21.006247080838
  C        15.6380212543       18.9186170388        20.076939948838
  C        16.8664318553       18.9549034586        19.421202991738
  C        17.8493242258       17.9755623833        19.669067742938
  C        17.5829634644       16.9893200318        20.636179076438
  C        16.3565189377       16.9524492722        21.295412526938
  C        19.1167888419       17.9521117344        18.900905817938
  C        19.0941269255       17.9313686719        17.479438502538
  C        17.8751418842       17.8192403729        16.737834727838
  C        28.8092454109       14.0904383872       10.3893230593
  C        28.1969970856       12.9161684654       11.0749208106
  C        28.9201078699       12.1703163791       12.0173388285
  C        28.3187799119       11.0974151597       12.6701902859
  C        26.9804496017       10.7449578978       12.4032340194
  C        26.2795249677       11.4691668454       11.4222459465
  C        26.8782340799       12.5432593958       10.7688467825
  C        26.3108696285        9.6661028228       13.1654373676
  C        26.3001655154        9.6922908674       14.5866146564
  C        26.8023072833       10.8060715109       15.3317872436
  C        32.1716283031       21.2465577894       10.1879551574
  C        32.7546753088       22.4184946616       10.9010089611
  C        32.0046879938       23.0968289547       11.8737942856
  C        32.5740820100       24.1415048038       12.5957160079
  C        33.9066887049       24.5348010107       12.3645618080
  C        34.6368640755       23.8767794559       11.3572581384
  C        34.0712991649       22.8263537231       10.6385128366
  C        34.5398146863       25.6063373147       13.1657219558
  C        34.5369099133       25.5676014379       14.5871527060
  C        34.0301366265       24.4479737630       15.3202999916
  C        25.6930742049        8.6133608579       15.3061048972
  C        25.6741118836        8.6153464985       12.4924805386
  C        32.1180702096       21.2090342835        21.919100289038
  C        32.7084398493       22.3599263032        21.177121191438
  C        31.9759694377       22.9959935118        20.162025030538
  C        32.5517965784       24.0220151358        19.416246912438
  C        33.8729542495       24.4436325611        19.665476350438
  C        34.5883586679       23.8174663649        20.705664702138
  C        34.0192680373       22.7839349233        21.445872073838
  C        34.5064592887       25.5286284788        18.878699190938
  C        34.5190513381       25.5277276327        17.455605389738
  C        34.0219098234       24.4282901297        16.687115720338
  C        40.6078517103       17.0836093599        16.754770956238
  C        40.5905589257       17.1110862080        19.565013169938
  C        28.7392300005       14.0634876490        21.817058194538
  C        28.1318499822       12.9150797413        21.082350487138
  C        28.8624280860       12.2435236239        20.090079388538
  C        28.2857780503       11.1872725292        19.388842387838
  C        26.9624756074       10.7785386271        19.651663044038
  C        26.2503023515       11.4388160093        20.670919051438
  C        26.8255387364       12.4942328494        21.376051002238
  C        26.3218960122        9.6895354117        18.875760621438
  C        26.3064049750        9.7049276075        17.453462504538
  C        26.8021733508       10.8136675059        16.697761505638
  C        18.1355291454        3.1809690918       10.3171683409
  C        17.4062814990        4.2782746759       11.0158778200
  C        16.3901058737        3.9999585370       11.9428889193
  C        15.7423679356        5.0399642485       12.6063542710
  C        16.0947727060        6.3836212611       12.3671113508
  C        17.0847356093        6.6531346498       11.4039616350
  C        17.7338306024        5.6157520091       10.7389455357
  C        15.4703272712        7.4913067655       13.1301287310
  C        15.4854766852        7.4906016829       14.5518462250
  C        16.1870103049        6.4969571024       15.3049968713
  C        42.9458720653       31.8596149061       10.0729155104
  C        43.6463070274       30.7718644851       10.8169263615
  C        44.5918193711       31.0932170663       11.8029738732
  C        45.1975445801       30.0876873842       12.5506758961
  C        44.8711374121       28.7346395231       12.3357848883
  C        43.9453199340       28.4202574797       11.3225899132
  C        43.3364824224       29.4253980814       10.5745488072
  C        45.4887501196       27.6553195939       13.1389467660
  C        45.4928043712       27.6807903676       14.5606489455
  C        44.8056034452       28.6887570699       15.3072774817
  C        14.8564326912        8.5630564216       15.2642004320
  C        14.8751079089        8.5630885738       12.4515295602
  C        42.9463635794       31.9616818422        21.798835378738
  C        43.6915783603       30.8854137056        21.085215815138
  C        44.6563160928       31.1913054931        20.113087378038
  C        45.2778844824       30.1717028406        19.395377370438
  C        44.9539752083       28.8214198860        19.632914590038
  C        44.0202674239       28.5237574819        20.643467512438
  C        43.3919849362       29.5405503173        21.355620660238
  C        45.5630664383       27.7239872891        18.847696343138
  C        45.5332770839       27.7171894442        17.426395892538
  C        44.8268569581       28.7073662203        16.673463377938
  C        35.1226122163       26.6253568227        16.754605580538
  C        35.1129018809       26.5887337536        19.564461718038
  C        18.1487441571        3.2470272056        21.696354269138
  C        17.4302287278        4.3439093998        20.986974569838
  C        16.4145488653        4.0526778852        20.063922171738
  C        15.7662534854        5.0833355540        19.388545982838
  C        16.1214305846        6.4284984821        19.610825622638
  C        17.1134163618        6.7118601606        20.567439229838
  C        17.7610819649        5.6829143030        21.247187430238
  C        15.4908168487        7.5241876226        18.838424037638
  C        15.4965336933        7.5075286953        17.417288631138
  C        16.1932510130        6.5057877416        16.670601325138
  H        10.6725627184       12.4658391687        19.894226456238
  H        11.6948805983       10.5510793518        18.652383669038
  H        15.3917608025       11.1685933369        20.762180604238
  H        14.3513350420       13.0712758467        22.007370627538
  H        13.3762697245       11.6312404554        17.191075057638
  H        50.3226656363       22.7477816565        19.976083018538
  H        49.3195944297       24.6222572770        18.670133881038
  H        45.6428700508       24.1622003621        20.854560652038
  H        46.6637103487       22.2912293399        22.162832330338
  H        47.6301340670       23.5758846675        17.235954539738
  H        14.8726544821        8.5884357602        20.598348119438
  H        50.2869714047       22.7020928402       12.0608138305
  H        49.2691308797       24.5749699246       13.3608574024
  H        45.6112236444       24.1104126695       11.1450443739
  H        46.6531979029       22.2550418579        9.8307094143
  H        47.6081304115       23.5518864554       14.7968914831
  H        40.6408343570       17.0615993365       11.4221084005
  H        48.6871961743       14.0950813396        23.789813864038
  H        10.6814168846       12.4667983006       12.0936053737
  H        11.6897534819       10.5248935795       13.2972555001
  H        15.3934235798       11.1587337465       11.2052656801
  H        14.3649859267       13.0871071301        9.9900805736
  H        13.3758871504       11.6221981583       14.7531455499
  H        47.9302280452       14.2185178583        9.7109583703
  H        47.7800832144       14.3742151266        22.485255150038
  H        49.0836442821       18.5524646382       10.8673031504
  H        10.4163178892       14.1343522310        7.9987776169
  H        24.4828701908        3.0261380744        19.905327798938
  H        25.6264667573        4.8833932743        18.679482332338
  H        23.2609204078        7.7539606013        20.838402925038
  H        22.1351275101        5.8871001547        22.065764194838
  H        23.8173933627        5.7901026043        17.256283752638
  H        36.3529859224       32.1772485576        19.979758504438
  H        35.2226095082       30.3447274584        18.716105891438
  H        37.5109650531       27.4345563622        20.905805478738
  H        38.6199509762       29.2795675257        22.180001821238
  H        37.0098259372       29.4458048049        17.303307626738
  H        25.7518792980        8.6048220835        20.640046369838
  H        36.4645358414       32.2504997544       12.1223140473
  H        35.3505625283       30.4438042916       13.4288338568
  H        37.5280617410       27.4903369646       11.1830479785
  H        38.6177641300       29.3090752538        9.8645121097
  H        37.0317678070       29.4758382545       14.8655638801
  H        46.1096729548       26.5878986781       11.3856169124
  H        44.6682913428       35.1162471059        23.803790102338
  H        24.4346456199        3.0400549297       12.0882264899
  H        25.5652871982        4.8796937574       13.3393752460
  H        23.1668889072        7.7680838660       11.2417065055
  H        22.0479315194        5.9165972857        9.9901753408
  H        23.7920046354        5.7920909252       14.8181062487
  H        44.9538083916       34.3904386415        9.6952783434
  H        44.9017095383       34.2067040019        22.480609557138
  H        40.6663150711       33.2095344095       10.8535720976
  H        23.1502941653        1.9582109879        8.0052684695
  H        25.7812285069       19.6956068461        19.950820311138
  H        23.6180412935       19.7326438494        18.712549931938
  H        22.3691122407       16.1858557705        20.799953325638
  H        24.5437765188       16.1547261230        22.029152133238
  H        23.7242215221       17.6959377316        17.236841756638
  H        35.1261582730       15.4632254407        19.992281608338
  H        37.2568436734       15.3943930718        18.690103628938
  H        38.6803271623       18.8224307485        20.862638973938
  H        36.5470139081       18.8727295183        22.166624714538
  H        37.2157427560       17.3683370727        17.236212210438
  H        20.3542029838       17.9685499166        20.657305978738
  H        35.1571359435       15.4279369143       12.0947624504
  H        37.2973443750       15.3522628254       13.3800145400
  H        38.7324026744       18.7549645771       11.1745277089
  H        36.5927897074       18.8092782746        9.8838958457
  H        37.2314953390       17.3468146378       14.7945808079
  H        35.1311768014       26.7061985574       11.4221306011
  H        28.5064418058       21.0900673328        23.977757372438
  H        25.7513370558       19.6393343661       12.1470909606
  H        23.5679436924       19.6972873785       13.3619478994
  H        22.3038119331       16.1759993902       11.2408987647
  H        24.4880556474       16.1400835483       10.0210251685
  H        23.7044385049       17.6796256222       14.7967836342
  H        29.0057189918       21.7167102782        9.7658640998
  H        29.1366275884       21.7580698093        22.604112622138
  H        32.0521418709       18.5486615064       11.0222633048
  H        27.4017438231       19.0744505751        8.0985885241
  H        14.8495673553       19.6478695782       12.1403680754
  H        17.0126708170       19.6939975803       13.3823870726
  H        18.3046543393       16.1896319233       11.2496839690
  H        16.1374582744       16.1589020077       10.0075169205
  H        16.9224311378       17.6931773915       14.8437456430
  H        46.0968017684       15.4386096777       12.0680251947
  H        43.9737376260       15.3679992486       13.3754617726
  H        42.5411963277       18.7986864080       11.2111500385
  H        44.6649791619       18.8437356947        9.8930918576
  H        44.0152776594       17.3071590008       14.8395342695
  H        20.2929738956       17.9220604692       11.4195301342
  H        46.0332491237       15.3789894200        20.032604198638
  H        43.9006275706       15.3127509461        18.741393606538
  H        42.5161582188       18.7884216810        20.863785344238
  H        44.6552434275       18.8402787684        22.156308264138
  H        43.9991007367       17.2935225847        17.278681932938
  H        46.1994866963       26.6827816474        20.613179643838
  H        52.7413150221       21.0627433990        8.1947286498
  H        14.8778323184       19.6727505417        19.885516558538
  H        17.0777134282       19.7449080650        18.703744646838
  H        18.3332471866       16.2267813600        20.834980728438
  H        16.1353827363       16.1782873731        22.026125969738
  H        16.9416786855       17.7072108329        17.281125542338
  H        52.3228645411       21.6734583678        22.283960978938
  H        52.0137314606       21.7024829837        9.4957544261
  H        49.0678886356       18.6078057266        21.193913050038
  H        13.2476329363       19.0161173868        23.967018964938
  H        29.9513979018       12.4458502784       12.2252884054
  H        28.8805143371       10.5196634591       13.4009837491
  H        25.2456690775       11.2062374072       11.2079922645
  H        26.3342370471       13.1243392934       10.0282737618
  H        27.1616042890       11.6765586609       14.7911054031
  H        30.9821994276       22.7781337434       12.0621653073
  H        31.9904065163       24.6649740533       13.3497769873
  H        35.6676878451       24.1724235058       11.1732435428
  H        34.6412036232       22.2909253166        9.8828344519
  H        33.6698492876       23.5830827535       14.7706906756
  H        25.7026890220        8.5964395989       11.4044286948
  H        30.9618606980       22.6592660008        19.958622170638
  H        31.9755982375       24.5135462513        18.635504576038
  H        35.6118095561       24.1290660350        20.903860690338
  H        34.5809516214       22.2780400737        22.227851267738
  H        33.6559285695       23.5476746084        17.207739130538
  H        40.5840782112       17.0811825053        20.652961690938
  H        32.5158043664       14.1499640589        8.2588529581
  H        29.8798822321       12.5690948450        19.884477580338
  H        28.8603357695       10.6617492303        18.629188853238
  H        25.2264442591       11.1364577484        20.881184879538
  H        26.2715834855       13.0195874635        22.150458490438
  H        27.1594694924       11.6905307882        17.229788621338
  H        33.2925944136       14.1787702453        22.418274275938
  H        33.4057957289       14.3974298779        9.6100528603
  H        32.2886345332       18.7049589067        21.256062220838
  H        30.2198947692       14.1940537672        8.0908826155
  H        16.1177207086        2.9634733846       12.1289255767
  H        14.9525726281        4.8206288522       13.3216481259
  H        17.3677159583        7.6859544018       11.2113512751
  H        18.5163604050        5.8183623613       10.0116108683
  H        16.7535967662        5.7396585739       14.7714642058
  H        44.8280426662       32.1403232376       11.9771284491
  H        45.9374024237       30.3414860298       13.3066155081
  H        43.6826487646       27.3781826071       11.1524816177
  H        42.5998549548       29.1901333133        9.8098685603
  H        44.2302674525       29.4365254421       14.7689486271
  H        14.8515620070        8.5463714801       11.3633042885
  H        44.8999503030       32.2339924070        19.921760678538
  H        46.0249313914       30.4129482870        18.642281639638
  H        43.7631750278       27.4840418571        20.834926080338
  H        42.6453404264       29.3178445552        22.113951647038
  H        44.2683581027       29.4702360708        17.208087536838
  H        35.0716241737       26.5981159653        20.652007857538
  H        36.6052887237       35.1340043480        8.1806171277
  H        16.1431202949        3.0131272250        19.894582707938
  H        14.9735916719        4.8565562193        18.678815650738
  H        17.3975234931        7.7472574836        20.743779219338
  H        18.5445101261        5.8933122107        21.971374390638
  H        16.7647300558        5.7555961359        17.209064959638
  H        36.2791223947       34.4821856551        22.262922710638
  H        36.3813323650       34.2088767120        9.4994797329
  H        40.5794067893       33.2024193863        21.143926451838
  H        17.4708763839        1.9472823484        23.963849435938
  H        29.0407225874       19.3220045916       12.4737033527
  H        28.7062120631       19.1581746350        19.692202099838
  H        32.0601184681       15.8941361210        19.336985260338
  H        31.1588465486       15.5608360260       12.5256076939
  H        28.3762060877       17.9190903267       14.8265202888
  H        29.8830347069       16.0761468470       15.2488393749
  H        31.8756044118       19.4369011262        17.265178577138
  H        33.2459846805       16.8528141417        17.360225029538
  H        33.5174208565       18.9290714211       16.1418179409
  H        18.8535457323        0.8688978772       12.3353279567
  H        40.5281926027       35.2290271050        19.941858274438
  H        42.3238882357       34.4188421263        19.580179992538
  H        22.0875142283        0.6923398950       12.3514944499
  H        11.5968846952       18.7126256463       12.3825602274
  H        52.2650992611       18.4315046371        19.667054626338
  H        49.2552915073       16.4766710458        19.574056615038
  H        10.1498296699       15.7982594139       12.2927466772
  H        50.8504823753       17.6925473038        19.943902748138
  H        10.0458696539       17.3946121166       12.0519215841
  H        20.2148832037        0.0022326259       12.0419814126
  H        39.1837567235       36.1243466001        19.675964355238
 Ni        30.5198330495       17.6702392274        19.903528132938
 Ni        31.6676210216       17.4921600619       15.741556568838
 Ni        30.0567154816       19.1120690867       15.906862178638
 Ni        30.1834836437       17.5246068928       13.3212578136
  O        10.6499596210       14.3651738268        21.475682052138
  O        12.6131550171       14.6575366983        22.573729548338
  O        49.1477162622       16.8458911427        23.979514470038
  O        50.3502739065       20.9356359151        21.637841734938
  O        48.3485504030       20.5931959273        22.655759458538
  O        11.0517985650       17.0537486214        22.490534820338
  O        50.3209644949       20.8815862885       10.4068402281
  O        48.3467060701       20.5866548130        9.3271215787
  O        49.5436051298       18.2483773162       10.0682090963
  O        12.3590285968       18.6246388424        7.9997410010
  O        48.6932152986       14.1486616600        22.741076293538
  O         8.2098733282       14.2104751480        9.3225470664
  O        10.7353165922       14.5068279936       10.6642953753
  O        12.5717689093       14.5828346236        9.3285074594
  O        22.8444884748        2.0427303389        21.477050675538
  O        21.6059913340        3.5924762271        22.579079919338
  O        42.0582169003       34.1374681827        23.968836971638
  O        37.9815673421       33.1369719643        21.562457697738
  O        39.2192041407       31.5769141525        22.657455331238
  O        20.3084666403        1.0398052068        22.491927900838
  O        38.0245194607       33.1854758283       10.4156795416
  O        39.2178525431       31.5826403815        9.3282457530
  O        40.6522306531       33.7692990062       10.0603142283
  O        18.2555586260        1.3761171224        7.9967998178
  O        44.6222548830       35.1005036158        22.748583194238
  O        24.2054131244        0.0000060439        9.3207718259
  O        22.7529236111        2.0576443701       10.5837137058
  O        21.6243806613        3.5959118705        9.3425058437
  O        27.4927782057       18.7506600031        21.483447465338
  O        26.7598018567       16.9373719959        22.643665311338
  O        30.6901795056       19.3597458118        8.0502845949
  O        33.5550750436       16.3285553001        21.656950705038
  O        34.2214845985       18.2482156002        22.658324413138
  O        29.5800593093       17.0718042642        22.569614705138
  O        33.5550379547       16.3395107924       10.4169570171
  O        34.3084904913       18.2356094970        9.4140858251
  O        31.6527838519       18.3139933547       10.1669753433
  O        30.3270007227       15.1595702820        8.0848340319
  O        28.5484877373       21.0390722598        22.898880643138
  O        28.5147399670       20.9562577182        9.4101266046
  O        27.4576169326       18.6804422565       10.6560314729
  O        26.6956959715       16.9288970766        9.4107325762
  O        13.1487878608       18.6928994493       10.5874025895
  O        13.9194244140       16.9162392714        9.4050206887
  O        50.5960825377       19.3501750061        8.0205827248
  O        47.6826430915       16.3271105685       10.4175607799
  O        46.9497213717       18.1754995018        9.3261193505
  O        11.0697091032       17.0155891707        9.4895943052
  O        47.6747597761       16.3358170808        21.642356016238
  O        46.9261696893       18.2358024585        22.653464278838
  O        49.5688626460       18.3176519355        21.972194349538
  O        10.3186516450       15.1001791842        7.9971269620
  O        52.6707666472       21.0278740294        9.2418245743
  O        12.1468335397       20.8912091592        22.663062198138
  O        13.1078988327       18.6136376585        21.315492096438
  O        13.9569937573       16.9869605325        22.655314902238
  O        29.9955614270       14.4415197056       10.7261981250
  O        28.0901499260       14.6542773834        9.4941229408
  O        32.1028854144       16.9108505436        8.0541279553
  O        30.9547721579       20.9534908804       10.4143004148
  O        32.9562028862       20.5951348030        9.4082264556
  O        29.5639780075       17.0752837736        9.5742486073
  O        30.8805676287       20.9552920306        21.736809672938
  O        32.9092089185       20.5162294460        22.653161452538
  O        31.5231643509       18.2448591637        21.642006179638
  O        28.2894753611       18.6809478051        8.0737873061
  O        32.4903755451       14.2155701279        9.3304535154
  O        32.4066627348       14.2146464484        22.815725850138
  O        29.9101733514       14.4320453427        21.487622712038
  O        28.0319203155       14.5939527687        22.747327947538
  O        17.8892070299        1.9666213250       10.6628029694
  O        18.9562038600        3.5271543271        9.4079645940
  O        39.1685492175       34.1387613025        7.9972255779
  O        43.2802303612       33.0589198982       10.3317650811
  O        42.0345264308       31.5063837298        9.2417101721
  O        20.3175995334        1.0367788163        9.4800700849
  O        43.2760946977       33.1825012899        21.564632566138
  O        42.0052715382       31.5841387614        22.572838756538
  O        40.5792273759       33.7753679821        21.925854046838
  O        22.3673900662        1.3846680513        7.9979615317
  O        36.6727648415       35.0997107244        9.2332948448
  O        16.4456840519        0.0642559458        22.658044063338
  O        17.9364781697        2.0434251042        21.316168589538
  O        18.9190527213        3.5931791784        22.655723569438
  O        29.6191932569       19.3288241684        19.990114773938
  O        29.7841648782       18.8980961133       12.0035937311
  O        31.4268802423       16.0530528701        20.065513073538
  O        31.2181025076       16.4211630456       12.0716418609
  O        32.9541976225       15.9018586848        17.411831623738
  O        30.6666265949       16.3417871171       14.7300459472
  O        32.9109015487       18.4638458011       16.7433599151
  O        30.9615578788       19.9353021858        17.340424730338
  O        29.0553267220       18.5369926178       14.4930761135
  O        39.4568576391       35.2438013166        19.991773235138
  O        19.1414373657        0.0044437103       11.9905442837
  O        41.9695292140       35.1726836400        20.076862774938
  O        21.6913065485       -0.0692982649       11.8959991957
  O        51.3652017629       18.6143476573        19.995184678738
  O        10.7511133402       18.7471097803       11.9049550209
  O        50.0795756862       16.4127421260        20.081561767338
  O         9.5239893915       16.4831648687       11.9912009437
 Zr         9.2977475138       16.0527643516        22.172174450138
 Zr        49.8370193144       16.0067286020        9.7464072386
 Zr        22.0734378527        0.0304630266        22.178629745938
 Zr        42.4609758357       35.1541267577        9.8009967406
 Zr        29.5695951334       19.1326196941        22.271629949438
 Zr        29.5781176913       19.1629465327        9.8648435082
 Zr        11.0385312001       19.0520125765        9.8279115116
 Zr        11.0444164312       19.1548357346        22.240781032938
 Zr        31.3282482527       16.1097990422        9.8816866902
 Zr        31.3861947128       15.9780622325        22.226637704938
 Zr        18.6011905195       -0.0012455320        9.7633782467
 Zr        18.5068861909       -0.0072948686        22.203491548238
 Zr        12.3028731908       16.3233533813        23.980259880138
 Zr        48.6169559049       18.8331970743        8.0104175332
 Zr        20.3157746581        2.4741026714        23.980207735038
 Zr        40.6434703428       32.6875747150        23.968528192538
 Zr        28.3469768085       16.3355895734        8.0716890986
 Zr        32.6494738406       18.8509389768        8.1251866018
  H        29.7792974333       17.2475574887        18.738535271138
  H        33.7117299339       15.3739604615        17.114583911338
  H        30.5698157419       19.6757829885        18.215840067338
