     573
 i =      414, E =     -4762.8335691030
  C        11.8587004407       14.0534678999        21.731386155438
  C        12.4561856803       12.8904763400        21.013195561138
  C        11.7046944512       12.1719625998        20.071057297938
  C        12.2810849899       11.1097772787        19.378695821138
  C        13.6214984191       10.7396203669        19.606815155438
  C        14.3544660611       11.4428313549        20.580710608938
  C        13.7815692798       12.5077775195        21.272245573538
  C        14.2611466507        9.6490681932        18.833382990938
  C        14.2565253964        9.6570574622        17.411681658138
  C        13.7434242728       10.7591950482        16.657744532538
  C        49.1267500226       21.2332907470        21.869498935138
  C        48.5500505840       22.4011465620        21.142410384738
  C        49.3000875733       23.0684418298        20.161382501538
  C        48.7331754131       24.1075699559        19.428176092838
  C        47.4026563105       24.5093103725        19.656830479438
  C        46.6717294761       23.8605387220        20.670439127438
  C        47.2341598621       22.8156360315        21.399798327138
  C        46.7724637911       25.5870119788        18.859541510838
  C        46.7615966805       25.5574453801        17.437780841038
  C        47.2615213046       24.4423561107        16.694276683838
  C        14.8605143485        8.5707508844        16.698406981938
  C        14.8918353516        8.5970443303        19.510014660638
  C        49.1132207537       21.2035003671       10.1453927420
  C        48.5279369335       22.3648309518       10.8724915104
  C        49.2671474144       23.0255052008       11.8654672443
  C        48.6908446445       24.0600961877       12.5968727451
  C        47.3604419930       24.4569365143       12.3586176531
  C        46.6400891699       23.8121440710       11.3349725755
  C        47.2136059875       22.7762003147       10.6032280928
  C        46.7220596490       25.5319288861       13.1496388492
  C        46.7338689315       25.5282900242       14.5713371640
  C        47.2492668853       24.4290660970       15.3277259468
  C        40.6296024854       17.1034755701       15.3198004433
  C        40.6450670643       17.1434746112       12.5105954192
  C        11.8829215739       14.0864217667       10.2854306484
  C        12.4721602961       12.9105214391       10.9895126732
  C        11.7148569818       12.1777561123       11.9161474524
  C        12.2814425779       11.0953192752       12.5845894335
  C        13.6200629943       10.7211489781       12.3522754441
  C        14.3578244956       11.4363374181       11.3910120581
  C        13.7924078181       12.5174915924       10.7183011058
  C        14.2537944322        9.6245562096       13.1227769737
  C        14.2526479400        9.6446604817       14.5446163599
  C        13.7428632336       10.7536492295       15.2916965565
  C        22.5115163362        3.2441749741        21.742924145438
  C        23.2256052603        4.3497155933        21.043243357538
  C        24.2197246445        4.0700543034        20.094005917138
  C        24.8458245045        5.1100420275        19.411777823538
  C        24.4934794705        6.4516533087        19.659041410038
  C        23.5276116133        6.7228001976        20.645206542138
  C        22.8967158123        5.6846522478        21.325610420438
  C        25.0973269386        7.5591720056        18.883497906738
  C        25.0627345911        7.5561584646        17.462156433238
  C        24.3580537363        6.5583720308        16.716453732038
  C        38.3024049934       31.9301127049        21.839017258238
  C        37.5723795100       30.8412089319        21.129820659538
  C        36.6139537411       31.1454726699        20.151048428238
  C        35.9966089196       30.1253620312        19.432743362238
  C        36.3228707738       28.7760934329        19.671933657238
  C        37.2513022898       28.4793957356        20.687483600138
  C        37.8728653010       29.4981405663        21.404546840338
  C        35.7209805767       27.6841564425        18.874982842738
  C        35.7532861373       27.6977252794        17.453713140138
  C        36.4586181716       28.7001333313        16.716043193638
  C        25.6824140603        8.6280516341        16.742474122938
  C        25.6996771493        8.6308367097        19.554249420338
  C        38.3285169876       31.9614493556       10.1563841807
  C        37.6074556177       30.8875266309       10.8977711267
  C        36.6779968816       31.1946224315       11.9033226677
  C        36.0690379547       30.1750939455       12.6324958153
  C        36.3750535436       28.8226916178       12.3800693067
  C        37.2817983047       28.5256185094       11.3440979058
  C        37.8928172584       29.5415693478       10.6160990533
  C        35.7689587036       27.7226527427       13.1647164570
  C        35.7778502329       27.7173875982       14.5868366267
  C        36.4697167013       28.7100229938       15.3495018361
  C        46.1358378399       26.6209038774       15.2814781840
  C        46.0879871162       26.5802208859       12.4735848493
  C        22.4598026718        3.2562721096       10.2580083928
  C        23.1509082599        4.3666685381       10.9815794899
  C        24.1510694851        4.0837149126       11.9253206375
  C        24.7754944607        5.1160297913       12.6214242720
  C        24.4201899981        6.4611256212       12.3962181592
  C        23.4432506217        6.7373029188       11.4209178484
  C        22.8140016846        5.7052512745       10.7255674107
  C        25.0475753791        7.5613284588       13.1705228166
  C        25.0376127782        7.5566503830       14.5934031345
  C        24.3443226603        6.5595421796       15.3497686998
  C        26.6156133202       17.8588751293        21.772548885538
  C        25.3089397793       17.9051130130        21.049280372738
  C        25.0427802977       18.9084729563        20.103841066238
  C        23.8302607442       18.9260319379        19.417220997338
  C        22.8463125425       17.9450304271        19.655547558338
  C        23.1079253101       16.9646840411        20.631424341638
  C        24.3229596281       16.9406148625        21.314587830738
  C        21.5737083174       17.9303238137        18.890219660138
  C        21.5758825212       17.9119488270        17.467799781338
  C        22.7827900770       17.7911093622        16.709288237838
  C        34.4403991170       17.1904528470        21.906510458538
  C        35.7333627677       17.1359658921        21.165996681938
  C        35.9457042957       16.1574934356        20.182096096138
  C        37.1252339508       16.1458728545        19.443748194138
  C        38.1263524884       17.1094466246        19.672107581738
  C        37.9188979175       18.0671495718        20.682926083338
  C        36.7353578707       18.0858049166        21.416841914138
  C        39.3798166109       17.1162976863        18.884817492138
  C        39.3735680604       17.1241396363        17.463209845138
  C        38.1653489452       17.2439881019        16.706935045238
  C        20.3303368556       17.9299722788        16.757421522838
  C        20.3484032995       17.9310516063        19.571141160538
  C        34.4658386683       17.2424910960       10.1821081608
  C        35.7647614811       17.1653375967       10.9109010371
  C        35.9819110533       16.1720262754       11.8777094651
  C        37.1684433881       16.1487551947       12.6053177411
  C        38.1666846458       17.1170108631       12.3837635352
  C        37.9557199482       18.0862281694       11.3857086229
  C        36.7669584437       18.1151987453       10.6619475685
  C        39.4150928522       17.1284866158       13.1770581551
  C        39.3918823407       17.1312101826       14.5979599819
  C        38.1742355022       17.2462756284       15.3402594093
  C        35.1487191285       26.6378144935       15.2916771314
  C        35.1811434107       26.6500656509       12.4824411279
  C        26.5762996994       17.8264110541       10.3261817278
  C        25.2633749126       17.8681186468       11.0373241813
  C        24.9991069223       18.8734339194       11.9799847338
  C        23.7806665262       18.8994962795       12.6531474025
  C        22.7970908453       17.9205867820       12.4070682165
  C        23.0568210748       16.9389409865       11.4335797580
  C        24.2758855559       16.9104687611       10.7589526242
  C        21.5319322112       17.9040423350       13.1778223829
  C        21.5542731288       17.8963025389       14.5993350287
  C        22.7718480088       17.7829125634       15.3430886425
  C        14.0472933607       17.8290141592       10.2886970813
  C        15.3526907474       17.8864192201       11.0133512485
  C        15.6105925739       18.8902250190       11.9600241826
  C        16.8201127669       18.9111747563       12.6522747063
  C        17.8064274058       17.9311276737       12.4202043101
  C        17.5534449465       16.9517065909       11.4411358068
  C        16.3433610443       16.9262340828       10.7504866819
  C        19.0754230507       17.9134497116       13.1900591548
  C        19.0727560948       17.9107615713       14.6126877420
  C        17.8648433984       17.8127088565       15.3726722044
  C        46.8047933717       17.2179987711       10.1585466780
  C        45.5147188896       17.1540755747       10.9036913974
  C        45.3082332352       16.1717701663       11.8846318775
  C        44.1267254179       16.1510173852       12.6208901761
  C        43.1220313801       17.1129348774       12.3986741544
  C        43.3257007668       18.0749045889       11.3908461747
  C        44.5077128159       18.0992156643       10.6551050958
  C        41.8696204744       17.1220616568       13.1883440652
  C        41.8759906623       17.1152879775       14.6102802589
  C        43.0855117840       17.2049761624       15.3686846405
  C        20.3187155614       17.9214649009       15.3225928110
  C        20.3006702470       17.8927890163       12.5094715896
  C        46.7856866002       17.2306462104        21.879462509438
  C        45.4827939993       17.1230506413        21.164655249538
  C        45.2645284975       16.1212959076        20.206795972238
  C        44.0768809510       16.0925076963        19.480284158238
  C        43.0786402027       17.0624701849        19.694992234938
  C        43.2871673784       18.0340092396        20.691616600238
  C        44.4758427402       18.0690359310        21.413342952438
  C        41.8330536467       17.0834647544        18.897861628038
  C        41.8574549085       17.0943789043        17.476972836538
  C        43.0767701557       17.1926880967        16.735235363338
  C        46.1535949900       26.6373202623        16.716021795038
  C        46.1623887003       26.6560723022        19.525670909538
  C        14.0445677885       17.8309181216        21.698161816538
  C        15.3648285590       17.9034748431        21.006243147238
  C        15.6392213352       18.9199214797        20.079201305638
  C        16.8679867323       18.9562113393        19.423968123038
  C        17.8493778177       17.9751020411        19.670277580938
  C        17.5815389997       16.9869464454        20.634930218238
  C        16.3548818955       16.9502463931        21.293729750638
  C        19.1169898872       17.9503884233        18.902350025838
  C        19.0944856530       17.9287173285        17.480862616238
  C        17.8754518483       17.8205995939        16.738724143538
  C        28.8090463343       14.0947791252       10.3955711262
  C        28.1926473582       12.9243097113       11.0848242915
  C        28.9081976715       12.1889826716       12.0414659493
  C        28.3047655137       11.1154231561       12.6916790296
  C        26.9717200902       10.7533911680       12.4096428897
  C        26.2784471009       11.4693833225       11.4172986887
  C        26.8793238944       12.5431011126       10.7656381053
  C        26.2984638383        9.6749979609       13.1686672611
  C        26.2818538135        9.7034931030       14.5895496922
  C        26.7813632266       10.8179875566       15.3353878377
  C        32.1816180694       21.2375942949       10.1442935209
  C        32.7780884556       22.4000265755       10.8653156910
  C        32.0317700947       23.0776578528       11.8417179344
  C        32.6044601780       24.1154792325       12.5704033749
  C        33.9388101107       24.5041384499       12.3432170328
  C        34.6675564706       23.8452757300       11.3350952558
  C        34.0976090268       22.8015841559       10.6086625150
  C        34.5681553926       25.5797240709       13.1429503381
  C        34.5597691069       25.5518541020       14.5647119325
  C        34.0540745637       24.4357131996       15.3035038389
  C        25.6736168689        8.6248158022       15.3080023247
  C        25.6643207283        8.6229839665       12.4946542388
  C        32.1037591226       21.2275337504        21.872483099138
  C        32.6923129087       22.3831483864        21.134884570238
  C        31.9609295790       23.0340566571        20.129313228438
  C        32.5415876192       24.0628302270        19.391419120038
  C        33.8669885408       24.4701555639        19.640169197738
  C        34.5801100162       23.8333673878        20.674200705138
  C        34.0046062932       22.7993224204        21.407814609538
  C        34.5083570234       25.5489335432        18.853537791338
  C        34.5278982892       25.5366372791        17.431381016838
  C        34.0375590189       24.4291654384        16.670236408038
  C        40.6198216989       17.0963868813        16.754044169638
  C        40.6030207070       17.1134977672        19.563923670838
  C        28.7420067491       14.0677281410        21.806374982838
  C        28.1343914173       12.9205781849        21.070133001638
  C        28.8599530920       12.2419723933        20.079258033338
  C        28.2776081580       11.1860724221        19.382406881638
  C        26.9535614371       10.7836314645        19.649741507138
  C        26.2455187768       11.4506509843        20.667311054938
  C        26.8260966081       12.5063081158        21.366693996138
  C        26.3076558635        9.6961008760        18.877093704538
  C        26.2884571795        9.7144400392        17.455346100638
  C        26.7828239620       10.8247486509        16.701121754938
  C        18.1354395616        3.1808435278       10.3171747053
  C        17.4061264516        4.2781626318       11.0158499541
  C        16.3902915113        3.9998289330       11.9432219960
  C        15.7425522883        5.0398228860       12.6067152436
  C        16.0946012150        6.3835068141       12.3671148537
  C        17.0841048829        6.6530266406       11.4034866700
  C        17.7331947782        5.6156593041       10.7384579477
  C        15.4702679391        7.4912346488       13.1301283147
  C        15.4856416503        7.4906515503       14.5518400645
  C        16.1872468017        6.4970689808       15.3050070134
  C        42.9458994895       31.8595238706       10.0728926198
  C        43.6462763749       30.7718701316       10.8168963929
  C        44.5921282211       31.0931962263       11.8026454720
  C        45.1978425816       30.0876601127       12.5503228598
  C        44.8711864474       28.7346240499       12.3356708637
  C        43.9449977411       28.4202702768       11.3228064230
  C        43.3361763333       29.4254090333       10.5747630111
  C        45.4887989273       27.6553390499       13.1388718142
  C        45.4930972913       27.6810122323       14.5605628559
  C        44.8059992859       28.6890593438       15.3071715888
  C        14.8566941238        8.5631768964       15.2641803420
  C        14.8748783883        8.5629174911       12.4515212450
  C        42.9463992453       31.9615430513        21.798734147238
  C        43.6915736317       30.8854144663        21.085156703738
  C        44.6565648491       31.1913342391        20.113264519138
  C        45.2780967609       30.1717577322        19.395522245838
  C        44.9540036786       28.8214617951        19.632830424138
  C        44.0200225327       28.5237774556        20.643131814538
  C        43.3917509644       29.5405348137        21.355316565638
  C        45.5631626655       27.7240925217        18.847603860338
  C        45.5335573662       27.7174404122        17.426303754638
  C        44.8272819037       28.7077102236        16.673357088538
  C        35.1343147048       26.6288700903        16.726491295438
  C        35.1165102053       26.6092754780        19.536154874838
  C        18.1486039834        3.2469358446        21.696407624838
  C        17.4300414826        4.3438445186        20.987048826038
  C        16.4146816840        4.0525979364        20.063655200338
  C        15.7664077781        5.0832475249        19.388233804838
  C        16.1212195603        6.4284444280        19.610866546338
  C        17.1127976930        6.7118089957        20.567910361038
  C        17.7604311243        5.6828769436        21.247692778938
  C        15.4907614156        7.5241779093        18.838423750438
  C        15.4966872138        7.5076121258        17.417286065238
  C        16.1934317012        6.5058787555        16.670612226138
  H        10.6726633285       12.4662916897        19.893786372938
  H        11.6949183945       10.5515088665        18.651894197738
  H        15.3913462772       11.1679050361        20.762813193138
  H        14.3508416077       13.0706689415        22.008083809638
  H        13.3764128093       11.6313353813        17.191030155638
  H        50.3227585656       22.7483382615        19.976569057038
  H        49.3196404738       24.6227908116        18.670554811238
  H        45.6422630237       24.1613718481        20.853655590138
  H        46.6631119852       22.2905028439        22.161936609438
  H        47.6299589219       23.5759221607        17.235933694838
  H        14.8720743662        8.5882062505        20.598321244738
  H        50.2871618423       22.7026056459       12.0604435662
  H        49.2692029172       24.5754934132       13.3604379927
  H        45.6107086015       24.1094437964       11.1458778146
  H        46.6527471799       22.2541586323        9.8316134140
  H        47.6079699547       23.5519037793       14.7968549834
  H        40.6495999979       17.1175979913       11.4225891884
  H        48.6871398391       14.0948495694        23.789836445238
  H        10.6814987796       12.4670685761       12.0938307594
  H        11.6897498132       10.5251490963       13.2975476839
  H        15.3930739214       11.1580496403       11.2046590671
  H        14.3645780594       13.0865190326        9.9893715753
  H        13.3760335223       11.6222601696       14.7530574328
  H        47.9301787297       14.2182218571        9.7107821955
  H        47.7800643308       14.3736941381        22.485149836138
  H        49.0834287599       18.5523887788       10.8673362763
  H        10.4160790334       14.1343142439        7.9987223386
  H        24.4792661635        3.0314703045        19.901225512638
  H        25.6167528614        4.8931494765        18.675533706638
  H        23.2483978131        7.7557763004        20.842185405638
  H        22.1286096263        5.8843689452        22.068751229138
  H        23.7980768769        5.8009673469        17.257205616138
  H        36.3780390940       32.1888013084        19.955309674938
  H        35.2530790896       30.3643655786        18.675578512738
  H        37.5103176801       27.4401308990        20.878956210438
  H        38.6155137531       29.2772102166        22.167502742438
  H        37.0225993359       29.4510003160        17.261707988038
  H        25.7418758327        8.6091369579        20.641728257538
  H        36.4536660297       32.2384432713       12.1110476827
  H        35.3429339039       30.4190286175       13.4048245565
  H        37.5300466402       27.4857761038       11.1419966852
  H        38.6153812123       29.3167414891        9.8354091914
  H        37.0432252357       29.4680806105       14.8239091852
  H        46.1092509837       26.5875842226       11.3855484773
  H        44.6681669251       35.1161439862        23.803750060938
  H        24.4299374847        3.0461840091       12.0950343000
  H        25.5546559963        4.8894212811       13.3460839313
  H        23.1571764021        7.7710594091       11.2378511652
  H        22.0438070411        5.9157571865        9.9871458400
  H        23.7731199301        5.8036912131       14.8185857996
  H        44.9535891240       34.3903301025        9.6952224146
  H        44.9014987607       34.2066752361        22.480497648438
  H        40.6655727844       33.2086477280       10.8529283174
  H        23.1503405538        1.9578944918        8.0054797949
  H        25.7955980744       19.6723905313        19.923066188838
  H        23.6294285169       19.7097143045        18.689801153238
  H        22.3600045553       16.1982342382        20.824316973138
  H        24.5359768839       16.1695964443        22.051418240538
  H        23.7234387414       17.6739332566        17.239634124638
  H        35.1718659291       15.4149229118        20.003885219838
  H        37.2873778196       15.3815305410        18.686941299438
  H        38.6845436560       18.8189630028        20.862961496538
  H        36.5577353362       18.8404333123        22.179562993438
  H        37.2255843462       17.3675390558        17.237745347438
  H        20.3535518023       17.9687637143        20.659093016838
  H        35.2040736918       15.4325977231       12.0531502442
  H        37.3361507208       15.3761441218       13.3524965081
  H        38.7204999307       18.8403216748       11.2117072798
  H        36.5822212883       18.8801881025        9.9115670408
  H        37.2412625807       17.3716766278       14.7982314514
  H        35.1532673561       26.6750694139       11.3947195368
  H        28.5017679733       21.0869463474        23.874864738338
  H        25.7599681182       19.6286696148       12.1642428091
  H        23.5749714636       19.6841642419       13.3780583324
  H        22.3060207891       16.1759524701       11.2382515050
  H        24.4916001384       16.1418205075       10.0206512774
  H        23.7042753163       17.6591225020       14.8005848414
  H        29.0022533785       21.7247076296        9.7451632768
  H        29.1838012836       21.7252450512        22.548566755038
  H        32.0877531365       18.5710572708       10.9213033470
  H        27.4059118608       19.0743032645        8.0823836775
  H        14.8525763771       19.6496897106       12.1383494448
  H        17.0157297357       19.6959667033       13.3798697793
  H        18.3040618254       16.1868529443       11.2525656316
  H        16.1368831405       16.1565188970       10.0106085243
  H        16.9228306050       17.6980942739       14.8443121907
  H        46.0907636636       15.4381007494       12.0633310925
  H        43.9671590764       15.3814387372       13.3729398308
  H        42.5581386598       18.8257563532       11.2150777313
  H        44.6812041342       18.8561561628        9.8937997302
  H        44.0273295642       17.3168034990       14.8391288849
  H        20.2960579822       17.9217908226       11.4212945614
  H        46.0413856695       15.3802475668        20.032961947538
  H        43.9097415455       15.3153699067        18.737654497738
  H        42.5209634872       18.7871396231        20.863278156338
  H        44.6588069692       18.8378640901        22.159976710638
  H        44.0119463795       17.2941015928        17.278266828838
  H        46.1990587396       26.6825862201        20.613122042938
  H        52.7410976186       21.0626334220        8.1946876298
  H        14.8798528577       19.6752537821        19.889175334638
  H        17.0804859869       19.7475194927        18.708293557738
  H        18.3307700096       16.2229578525        20.832099384238
  H        16.1323375239       16.1749233121        22.022787829938
  H        16.9413625800       17.7121501194        17.281700748938
  H        52.3222930819       21.6732521904        22.284181973538
  H        52.0132003000       21.7020225381        9.4957443327
  H        49.0672841336       18.6079133822        21.194113522338
  H        13.2474012106       19.0164830980        23.967016325038
  H        29.9354411795       12.4724005844       12.2599159438
  H        28.8612292338       10.5439395046       13.4313959063
  H        25.2486508074       11.1997248264       11.1920328568
  H        26.3416075018       13.1169624009       10.0149498503
  H        27.1404500615       11.6888090528       14.7955275923
  H        31.0064693094       22.7656647527       12.0246238747
  H        32.0210746945       24.6395570238       13.3242324433
  H        35.7003580483       24.1360310815       11.1542689375
  H        34.6660042908       22.2675152801        9.8507329709
  H        33.7043377779       23.5631633093       14.7589373753
  H        25.6978653466        8.6017972873       11.4067773194
  H        30.9421720973       22.7095841080        19.929952385638
  H        31.9683786327       24.5675870012        18.616837922738
  H        35.6060714700       24.1368070931        20.872079325738
  H        34.5615196469       22.2848663617        22.187470818738
  H        33.6744310791       23.5517666259        17.197953007538
  H        40.5966176777       17.0804722688        20.651740000138
  H        32.5055339300       14.1448958989        8.2484902671
  H        29.8806410490       12.5545520742        19.871596998438
  H        28.8486421833       10.6565244533        18.622986829738
  H        25.2209058723       11.1529780143        20.880558430038
  H        26.2758597127       13.0372270339        22.139858407138
  H        27.1429957928       11.7007415198        17.232792810438
  H        33.3063781246       14.2286551927        22.453048365838
  H        33.4082325681       14.4114763567        9.5946894587
  H        32.1494554321       18.5124089189        21.163892245038
  H        30.1925310599       14.1543561174        8.0749466544
  H        16.1181580456        2.9633194518       12.1295088479
  H        14.9529995578        4.8204340810       13.3222628094
  H        17.3666066968        7.6859009716       11.2104752207
  H        18.5153077990        5.8182435929       10.0106717324
  H        16.7536813149        5.7396506272       14.7714844192
  H        44.8285851545       32.1402689333       11.9766439560
  H        45.9379094957       30.3413892637       13.3060792467
  H        43.6819870698       27.3782368776       11.1529743167
  H        42.5992680164       29.1900769184        9.8103832592
  H        44.2306306309       29.4368009726       14.7688444280
  H        14.8509752077        8.5460155686       11.3633055195
  H        44.9003672948       32.2340041417        19.922089424338
  H        46.0252922393       30.4129687807        18.642564939238
  H        43.7626831271       27.4840776083        20.834340083538
  H        42.6448759447       29.3177374084        22.113388235638
  H        44.2687261279       29.4705603196        17.207947761838
  H        35.0720795692       26.6238110744        20.623511936138
  H        36.6050498883       35.1339403410        8.1806242603
  H        16.1434889863        3.0130235375        19.894062392638
  H        14.9739457297        4.8564178846        18.678294245638
  H        17.3964306049        7.7472621443        20.744673213638
  H        18.5434559440        5.8932436730        21.972320593338
  H        16.7648014769        5.7556070858        17.209081740638
  H        36.2785513925       34.4824157919        22.263096353638
  H        36.3806960855       34.2092005881        9.4998404564
  H        40.5799504826       33.2022249185        21.143579629638
  H        17.4706093072        1.9470587369        23.963936099638
  H        29.1326299365       19.3237293320       12.4890362017
  H        28.8167382154       18.8757065997        19.755350498038
  H        32.2002292487       16.0838869801        19.589708193638
  H        31.3990315370       15.6484177389       12.5082729159
  H        27.8124869352       17.5905521865       14.0228261243
  H        29.4140600289       15.2496476778       14.3108524042
  H        32.4783269938       17.7325786816        16.913396791138
  H        30.2976592096       15.1723429196        18.336766318338
  H        32.9096231240       18.0364636190       13.9918653165
  H        18.8525297258        0.8686781249       12.3351757012
  H        40.5279087138       35.2290219470        19.941926184138
  H        42.3236535961       34.4185078797        19.580531533538
  H        22.0875225797        0.6917621254       12.3517027517
  H        11.5969454535       18.7130154858       12.3825678858
  H        52.2647009260       18.4310788455        19.666970270838
  H        49.2548703731       16.4771472859        19.574486590338
  H        10.1503503611       15.7981367388       12.2926757565
  H        50.8498244211       17.6924335126        19.944067241038
  H        10.0461298101       17.3944394886       12.0519888227
  H        20.2135070949        0.0018286401       12.0421581072
  H        39.1836016307       36.1243337091        19.676093237038
 Ni        30.6904200949       17.7271942878        18.736509719038
 Ni        30.9003076885       16.3757403347       15.908513411338
 Ni        29.2923298160       17.9908405733       15.914186662238
 Ni        29.9757572764       17.3005685974       13.0738906353
  O        10.6499471188       14.3651251714        21.475633007838
  O        12.6131692670       14.6575535252        22.573691321038
  O        49.1479444059       16.8459589901        23.979575789538
  O        50.3502571900       20.9358553283        21.637972296738
  O        48.3485775407       20.5932665347        22.655747300838
  O        11.0516506327       17.0539329683        22.490502003038
  O        50.3210901795       20.8816327011       10.4068007714
  O        48.3467592991       20.5867687069        9.3271613396
  O        49.5436362236       18.2484638576       10.0683073222
  O        12.3590038295       18.6246082162        7.9997251399
  O        48.6932729380       14.1485317417        22.741117727138
  O         8.2099050570       14.2103440885        9.3225047770
  O        10.7354035183       14.5067768309       10.6643055948
  O        12.5718354998       14.5828736363        9.3285058851
  O        22.8445335581        2.0431907643        21.476918987838
  O        21.6053259797        3.5921913730        22.579628157538
  O        42.0581840026       34.1373199478        23.968835999938
  O        37.9817836266       33.1386262950        21.562539417138
  O        39.2181136795       31.5764206351        22.656414474638
  O        20.3083279419        1.0394666042        22.491807307038
  O        38.0245196817       33.1854073646       10.4152262850
  O        39.2191701702       31.5837792709        9.3264050328
  O        40.6521949665       33.7692620495       10.0602492213
  O        18.2554023700        1.3760495951        7.9968081809
  O        44.6222274113       35.1005298322        22.748552544338
  O        24.2053418347        0.0000657849        9.3208573971
  O        22.7530029329        2.0584921623       10.5841584787
  O        21.6241806859        3.5959683252        9.3422010981
  O        27.4943719544       18.7506125873        21.481965572438
  O        26.7620975073       16.9361332520        22.643387480238
  O        30.6635353897       19.4072353956        8.0211898945
  O        33.5807558467       16.2740900171        21.651197072438
  O        34.2749520347       18.1616460922        22.722907715838
  O        29.5760339164       17.0544653048        22.565669874838
  O        33.6025779358       16.3248874318       10.4089867155
  O        34.3028550595       18.2419629051        9.4037420591
  O        31.6571878363       18.3170039707       10.0881101358
  O        30.2982055471       15.1192163145        8.0813889400
  O        28.5516125345       21.0350359902        22.823618273138
  O        28.5143588196       20.9556271872        9.4046800433
  O        27.4619707354       18.6790187351       10.6586600379
  O        26.6949079212       16.9293050153        9.4123170044
  O        13.1493773794       18.6928577591       10.5876261797
  O        13.9197350600       16.9162309436        9.4052177684
  O        50.5961099428       19.3502448443        8.0206736635
  O        47.6836557249       16.3268330097       10.4171623134
  O        46.9513738464       18.1757002112        9.3250073949
  O        11.0697068860       17.0156196336        9.4897020759
  O        47.6766200052       16.3354686655        21.643222055938
  O        46.9271318805       18.2357416202        22.654274305938
  O        49.5686200210       18.3177538958        21.972161496138
  O        10.3187304815       15.1001658733        7.9971078281
  O        52.6707843242       21.0278973648        9.2418386731
  O        12.1468189734       20.8911693480        22.663015444938
  O        13.1079288861       18.6136816091        21.315453049938
  O        13.9570326225       16.9869128049        22.655327634338
  O        29.9935892007       14.4457222218       10.7329065519
  O        28.0884311281       14.6539587877        9.4967378228
  O        32.0766151437       16.8540711288        8.0613148116
  O        30.9650679095       20.9496912187       10.4070234891
  O        32.9459987164       20.5999387690        9.3349476737
  O        29.5647674088       17.0728632075        9.5720075558
  O        30.8751108725       20.9414764539        21.648532950138
  O        32.8795140292       20.5843951186        22.655743763638
  O        31.6815110338       18.2522356860        21.973722108438
  O        28.2916441777       18.6764919219        8.0682558526
  O        32.4916813635       14.2128685441        9.3270261228
  O        32.4036787714       14.2164114471        22.813301742838
  O        29.9154923035       14.4419102199        21.474249326338
  O        28.0368973697       14.5893625301        22.739911298038
  O        17.8892089370        1.9665864753       10.6628433354
  O        18.9561668504        3.5271500590        9.4079829244
  O        39.1686167512       34.1387959395        7.9972183368
  O        43.2802547142       33.0589687510       10.3317108709
  O        42.0346091355       31.5064087813        9.2416349446
  O        20.3175130476        1.0366453962        9.4803588663
  O        43.2760839753       33.1825556031        21.564680345138
  O        42.0053202020       31.5840230062        22.572776928738
  O        40.5790659800       33.7749117920        21.925696309338
  O        22.3673247279        1.3845541801        7.9979902497
  O        36.6727169987       35.0997467199        9.2332991159
  O        16.4454606246        0.0643320681        22.658118457238
  O        17.9364104391        2.0434258103        21.316126630038
  O        18.9190222376        3.5931677560        22.655712985438
  O        29.7392682942       18.8315841435        20.066352836038
  O        29.8630085690       18.8943981129       12.0007730643
  O        31.3448396634       16.3294531997        19.988620293638
  O        31.3451484617       16.4869619816       12.0065135426
  O        31.9775211522       17.0042070751        17.331670454338
  O        29.8331826472       15.0180840031        17.480838205638
  O        30.2429111580       15.7555646258       14.2382825797
  O        32.6579586636       18.6072773807       14.7403488377
  O        28.6337763887       18.0981730116       14.1578134140
  O        39.4567386534       35.2437490867        19.991732981138
  O        19.1404366678        0.0041484574       11.9906051498
  O        41.9695616875       35.1726464952        20.076982087338
  O        21.6910813377       -0.0695005488       11.8958312187
  O        51.3649707416       18.6142639844        19.995249072338
  O        10.7512071438       18.7471510239       11.9049161597
  O        50.0794470394       16.4128037001        20.081513335038
  O         9.5245011509       16.4830386284       11.9912232829
 Zr         9.2968490602       16.0527559998        22.172222473638
 Zr        49.8362404532       16.0067063202        9.7464462089
 Zr        22.0731325856        0.0296352367        22.178938406538
 Zr        42.4607725854       35.1533496835        9.8010011862
 Zr        29.6074837578       19.0867209771        22.244618331038
 Zr        29.5857358397       19.1838418691        9.8341489998
 Zr        11.0378948540       19.0520711368        9.8277802838
 Zr        11.0435324649       19.1549412647        22.240964652238
 Zr        31.3430620437       16.0978510207        9.8493458946
 Zr        31.3717963842       16.0017847786        22.246364315038
 Zr        18.6008549958       -0.0019234097        9.7632956343
 Zr        18.5063265674       -0.0079131345        22.203471981038
 Zr        12.3017808576       16.3235232792        23.980243063838
 Zr        48.6162637970       18.8332180261        8.0104031144
 Zr        20.3150187705        2.4729719052        23.980332595838
 Zr        40.6431925429       32.6867755051        23.968112201038
 Zr        28.3437874029       16.3344480309        8.0834158374
 Zr        32.6252266739       18.8390669523        8.0417856741
  H        31.7292637586       18.8329978239       14.5314162556
  H        29.0492239481       15.5959448667        17.550101141338
  H        29.5213433975       18.0431580301        17.469338414038
