     569
 i =       56, E =     -4729.5173041681
  C        11.8587633303       14.0535418888        21.731405380438
  C        12.4562830534       12.8906284585        21.013129055638
  C        11.7046079380       12.1717675740        20.071393933538
  C        12.2809782747       11.1095718201        19.379034324738
  C        13.6215387016       10.7397151225        19.606792469938
  C        14.3546865777       11.4432150135        20.580336466738
  C        13.7817954288       12.5081672982        21.271879000738
  C        14.2610552554        9.6490584218        18.833377904738
  C        14.2562167294        9.6569028606        17.411675098338
  C        13.7429191369       10.7589484322        16.657744219038
  C        49.1268075621       21.2331490108        21.869525271338
  C        48.5500449981       22.4010767868        21.142408647538
  C        49.3000817316       23.0684214875        20.161436237938
  C        48.7331504486       24.1075604204        19.428230411838
  C        47.4026056307       24.5091930792        19.656839797538
  C        46.6716361801       23.8602813117        20.670314821938
  C        47.2340855675       22.8153720447        21.399664927738
  C        46.7723824665       25.5869130966        18.859569580838
  C        46.7613819860       25.5573046289        17.437806234238
  C        47.2612400774       24.4421723229        16.694319330638
  C        14.8602160570        8.5706027443        16.698405904538
  C        14.8919727964        8.5971800460        19.510019642838
  C        49.1133835050       21.2033529885       10.1453323463
  C        48.5280783766       22.3647772360       10.8725012170
  C        49.2672590926       23.0253539972       11.8655429123
  C        48.6909669572       24.0599328844       12.5970090987
  C        47.3606328575       24.4568928051       12.3586415247
  C        46.6402862847       23.8121325515       11.3349782706
  C        47.2137893419       22.7761914634       10.6032017840
  C        46.7221854982       25.5318796052       13.1496623532
  C        46.7337512597       25.5281745220       14.5713727906
  C        47.2490368800       24.4288958099       15.3277649062
  C        40.6211472971       17.0853108506       15.3063943461
  C        40.6323013879       17.1028144651       12.4966679809
  C        11.8830016869       14.0865041167       10.2854861982
  C        12.4722070614       12.9106115841       10.9895643766
  C        11.7146970478       12.1775708570       11.9158229588
  C        12.2812236907       11.0950970557       12.5842472016
  C        13.6199803219       10.7211762083       12.3523062010
  C        14.3578907081       11.4365049246       11.3912671022
  C        13.7925336859       12.5177000682       10.7185630762
  C        14.2535928258        9.6244816892       13.1227754867
  C        14.2522718488        9.6444693328       14.5446200208
  C        13.7423117182       10.7533765815       15.2916972102
  C        22.5121702036        3.2434955241        21.743603966838
  C        23.2281569089        4.3471580893        21.045063088838
  C        24.2233624189        4.0647942801        20.097732983538
  C        24.8515122352        5.1030486260        19.415251692438
  C        24.4997137985        6.4450891149        19.660444021638
  C        23.5333014275        6.7188915617        20.645318604838
  C        22.9004321885        5.6825684188        21.326210335538
  C        25.1040421493        7.5511717374        18.884328779038
  C        25.0704590360        7.5466566052        17.463185405638
  C        24.3680981798        6.5470763288        16.717817109338
  C        38.2977591428       31.9295010411        21.843693132838
  C        37.5541928693       30.8414379866        21.144887657138
  C        36.5872564794       31.1498463567        20.175771324638
  C        35.9556473782       30.1325432204        19.465978635438
  C        36.2762483898       28.7815494454        19.702718263438
  C        37.2120286162       28.4803811433        20.710134602638
  C        37.8476275960       29.4967882221        21.419314917838
  C        35.6651979889       27.6950721706        18.903516052938
  C        35.7040804523       27.7121372397        17.482088403838
  C        36.4199765626       28.7113904575        16.749844417738
  C        25.6874743384        8.6199364718        16.743467426438
  C        25.7042042780        8.6237826648        19.555100792738
  C        38.3311834838       31.9613706113       10.1611756878
  C        37.6145373829       30.8901320477       10.9138727644
  C        36.6825704149       31.2042696475       11.9151923775
  C        36.0703643101       30.1907565130       12.6506117911
  C        36.3747376804       28.8360213134       12.4089749162
  C        37.2890018037       28.5316319603       11.3815662051
  C        37.9031506725       29.5418930244       10.6472167355
  C        35.7538622697       27.7411319861       13.1914341929
  C        35.7486656327       27.7361651660       14.6141982429
  C        36.4403761628       28.7238785097       15.3834668566
  C        46.1357629492       26.6208387979       15.2814950918
  C        46.0883476654       26.5803042472       12.4735974674
  C        22.4601522856        3.2556733809       10.2576653322
  C        23.1521270955        4.3644190484       10.9809806097
  C        24.1533926909        4.0792266266       11.9229171466
  C        24.7789218272        5.1100299874       12.6198004050
  C        24.4231616400        6.4553744616       12.3972468858
  C        23.4452992439        6.7337689793       11.4235179313
  C        22.8150866498        5.7033164865       10.7270821129
  C        25.0509623589        7.5542592193       13.1720445331
  C        25.0436375384        7.5477636295       14.5947780709
  C        24.3535456048        6.5485595602       15.3511898937
  C        26.6119065049       17.8561143682        21.771249213338
  C        25.3052137470       17.9041475309        21.049658230538
  C        25.0383124641       18.9095463389        20.106621630738
  C        23.8257410749       18.9275873626        19.420260728238
  C        22.8429715680       17.9445614979        19.655245338938
  C        23.1053285508       16.9621650134        20.628903959638
  C        24.3201514423       16.9379315371        21.312498735038
  C        21.5720553422       17.9298785169        18.886730213238
  C        21.5784197522       17.9186763864        17.464015279038
  C        22.7878237168       17.8011167070        16.708901062238
  C        34.4403724457       17.1885585720        21.906757708238
  C        35.7328519760       17.1416328779        21.162393902138
  C        35.9369949146       16.1702777394        20.169633055538
  C        37.1165523261       16.1553238134        19.430975282738
  C        38.1251649361       17.1103362231        19.664663834738
  C        37.9239088546       18.0624974855        20.682139450038
  C        36.7411389085       18.0830633308        21.418208696138
  C        39.3779315007       17.1155721420        18.875217180638
  C        39.3698921090       17.1174118500        17.453117344538
  C        38.1607965424       17.2318481938        16.697317616438
  C        20.3350526485       17.9407013304        16.749783513238
  C        20.3445884473       17.9254514838        19.563924123138
  C        34.4442461939       17.2349397912       10.1793588834
  C        35.7469771690       17.1361387729       10.8983077059
  C        35.9479994634       16.1589900204       11.8849277268
  C        37.1368230571       16.1274994471       12.6095173530
  C        38.1535388463       17.0725369546       12.3688511791
  C        37.9590611416       18.0214883100       11.3473069895
  C        36.7697674070       18.0577742271       10.6251318011
  C        39.4018712864       17.0876461269       13.1638652021
  C        39.3818900214       17.1030489072       14.5855700394
  C        38.1664310625       17.2231017833       15.3306617246
  C        35.1046073292       26.6618242380       15.3143402826
  C        35.1631593553       26.6726959847       12.5041838158
  C        26.6052593905       17.8021810155       10.3373123668
  C        25.2957538745       17.8644679996       11.0528250614
  C        25.0321985713       18.8789375404       11.9856670288
  C        23.8090373734       18.9182905694       12.6515441152
  C        22.8194696537       17.9441250026       12.4084782920
  C        23.0797077415       16.9530584375       11.4446061466
  C        24.3019216748       16.9116509899       10.7772084312
  C        21.5493458602       17.9342137763       13.1736395961
  C        21.5665103696       17.9202860097       14.5953848555
  C        22.7815048830       17.8016184236       15.3425977040
  C        14.0507423594       17.8316223415       10.2869578705
  C        15.3603447883       17.8960352205       11.0058389265
  C        15.6189927202       18.9031128042       11.9492124531
  C        16.8312310717       18.9306628000       12.6371657729
  C        17.8215923179       17.9542152261       12.4053082507
  C        17.5682857565       16.9723985923       11.4283611927
  C        16.3553399768       16.9402778098       10.7418932211
  C        19.0911746571       17.9402004697       13.1768948448
  C        19.0844557989       17.9318210906       14.6000032818
  C        17.8744723324       17.8288808018       15.3563526421
  C        46.8030085266       17.2160068955       10.1564637532
  C        45.5096424135       17.1458329275       10.8963353188
  C        45.3038186772       16.1609899533       11.8749628255
  C        44.1197469851       16.1334676955       12.6069762376
  C        43.1109427108       17.0906436415       12.3829270305
  C        43.3133256497       18.0542269132       11.3763424203
  C        44.4982878405       18.0856273970       10.6450109684
  C        41.8578129204       17.0948526000       13.1726425823
  C        41.8664058862       17.0981084882       14.5947626834
  C        43.0769303086       17.1975287508       15.3503760944
  C        20.3281235371       17.9408037534       15.3145408494
  C        20.3196667636       17.9242593514       12.5009169733
  C        46.7852413977       17.2325633749        21.875797191538
  C        45.4843028458       17.1287760795        21.154728309338
  C        45.2671394779       16.1294314521        20.193777253638
  C        44.0804205573       16.1015115743        19.465106298138
  C        43.0804921845       17.0702278813        19.679232220938
  C        43.2890070404       18.0408553095        20.677072316938
  C        44.4765996327       18.0747914076        21.401353333538
  C        41.8327629392       17.0881395550        18.883547402438
  C        41.8538667756       17.0934711962        17.462147909338
  C        43.0710625370       17.1923708609        16.717168175838
  C        46.1534620777       26.6372368561        16.716053820638
  C        46.1624968791       26.6560719711        19.525699073238
  C        14.0443218174       17.8293325072        21.695985250538
  C        15.3626104226       17.8986111256        20.999432852438
  C        15.6364843157       18.9147880815        20.071796216538
  C        16.8639819279       18.9502040235        19.413945737038
  C        17.8455226276       17.9684406115        19.657682385438
  C        17.5774185525       16.9791895663        20.621380907238
  C        16.3520581840       16.9434855803        21.282963855538
  C        19.1148303101       17.9471452680        18.891706643138
  C        19.0969550526       17.9341436955        17.469783547138
  C        17.8806389616       17.8297168395        16.722703624838
  C        28.8044422453       14.0855519862       10.3924271176
  C        28.1881232398       12.9151337734       11.0792589669
  C        28.9023872369       12.1867379730       12.0421272164
  C        28.3000857391       11.1145482209       12.6947603204
  C        26.9693790635       10.7473209437       12.4088998811
  C        26.2779389143       11.4554903127       11.4096546319
  C        26.8778803351       12.5280486833       10.7552397673
  C        26.2978240257        9.6697502833       13.1696294953
  C        26.2822958680        9.6979326037       14.5906305006
  C        26.7772425534       10.8145571958       15.3363862453
  C        32.1766332449       21.2363476778       10.1824083225
  C        32.7534528780       22.4109392725       10.8994503571
  C        31.9943459585       23.1150355465       11.8473305453
  C        32.5625851758       24.1615276062       12.5680684942
  C        33.9052228859       24.5333108930       12.3608762137
  C        34.6456563476       23.8515809817       11.3769355861
  C        34.0800502088       22.8009179737       10.6581428684
  C        34.5334637631       25.6095564254       13.1606727521
  C        34.5114959443       25.5820660248       14.5819855578
  C        33.9907718059       24.4698362219       15.3159760125
  C        25.6779895949        8.6170232174       15.3090998504
  C        25.6648008140        8.6170874035       12.4959587816
  C        32.0786862969       21.1982294787        21.866269298938
  C        32.6445029754       22.3667389295        21.129039890638
  C        31.9088052157       23.0128389455        20.123867165938
  C        32.4777944559       24.0568095309        19.396391438638
  C        33.7966021316       24.4822542782        19.652091386338
  C        34.5130839278       23.8491927013        20.686309176338
  C        33.9488963277       22.8031846227        21.410768085638
  C        34.4361955718       25.5677977125        18.871742049338
  C        34.4620555163       25.5606885906        17.449316934838
  C        33.9672897685       24.4592307264        16.682381614938
  C        40.6145939866       17.0879416476        16.741331475138
  C        40.6033181017       17.1170771740        19.551461499438
  C        28.7414478626       14.0607875237        21.807107950738
  C        28.1304363943       12.9149557363        21.072568619438
  C        28.8574603224       12.2382745312        20.081532455138
  C        28.2769150398       11.1821144736        19.384060154438
  C        26.9531894754       10.7783454475        19.651066177638
  C        26.2439341072       11.4432116595        20.668815684638
  C        26.8231426654       12.4992497261        21.369201511838
  C        26.3095904502        9.6901768629        18.877981681538
  C        26.2897968789        9.7083242826        17.456256320438
  C        26.7787641305       10.8210381831        16.702199986038
  C        18.1354732036        3.1810609284       10.3172102465
  C        17.4062464093        4.2782725836       11.0158916171
  C        16.3902979744        3.9999442018       11.9431672577
  C        15.7425723993        5.0399407305       12.6066263328
  C        16.0947265260        6.3836330172       12.3671452566
  C        17.0844325653        6.6531354224       11.4037189139
  C        17.7335339544        5.6157738552       10.7387018760
  C        15.4702794969        7.4913018209       13.1301395415
  C        15.4855121579        7.4906150117       14.5518479399
  C        16.1872100693        6.4970941726       15.3050076391
  C        42.9459022155       31.8595808046       10.0728684995
  C        43.6464228967       30.7718934411       10.8167321011
  C        44.5916747826       31.0933065890       11.8030392921
  C        45.1975095504       30.0878200625       12.5506924076
  C        44.8714832689       28.7346927479       12.3356219134
  C        43.9460305143       28.4202598607       11.3220815465
  C        43.3371136728       29.4253460404       10.5740404174
  C        45.4890693694       27.6554146363       13.1388455923
  C        45.4931486445       27.6810124378       14.5605501513
  C        44.8061283519       28.6890984504       15.3071859927
  C        14.8564060827        8.5630396490       15.2641850208
  C        14.8749422366        8.5630031143       12.4515130757
  C        42.9464635624       31.9616602847        21.798760808638
  C        43.6917437090       30.8854911512        21.085317150438
  C        44.6563314302       31.1914221459        20.113017669938
  C        45.2779177759       30.1718482118        19.395312170738
  C        44.9542009698       28.8215114948        19.632927819438
  C        44.0207588750       28.5238273289        20.643747610238
  C        43.3924523059       29.5405771302        21.355921491838
  C        45.5632313871       27.7241040669        18.847661270138
  C        45.5335616265       27.7174303147        17.426356409138
  C        44.8273633946       28.7077241789        16.673372164838
  C        35.0803586890       26.6500355807        16.749317069038
  C        35.0491379316       26.6232171947        19.559223912838
  C        18.1486421223        3.2471004490        21.696319475038
  C        17.4301509098        4.3439127562        20.986971344138
  C        16.4146600180        4.0527167829        20.063682761338
  C        15.7663883051        5.0833879837        19.388327087138
  C        16.1213808413        6.4285768429        19.610817540838
  C        17.1131548553        6.7118965471        20.567672578538
  C        17.7607981498        5.6829404727        21.247407444038
  C        15.4908020452        7.5242672244        18.838414966638
  C        15.4965885500        7.5075896392        17.417285570338
  C        16.1934536332        6.5059436167        16.670610708538
  H        10.6724853631       12.4659072453        19.894353249138
  H        11.6946831010       10.5511147217        18.652481821938
  H        15.3917100599       11.1685941983        20.762087997638
  H        14.3512603144       13.0712882280        22.007392233538
  H        13.3758731075       11.6310733831        17.191028078838
  H        50.3227952996       22.7483922612        19.976709330338
  H        49.3196426199       24.6228503738        18.670674623938
  H        45.6421343947       24.1610322247        20.853461981038
  H        46.6630581514       22.2900859010        22.161717852038
  H        47.6296594128       23.5757453161        17.236008123838
  H        14.8724818035        8.5884950205        20.598329739338
  H        50.2872433499       22.7023675362       12.0605494604
  H        49.2693382099       24.5752743465       13.3606053235
  H        45.6109472371       24.1095177119       11.1457933408
  H        46.6529797760       22.2541272544        9.8315628451
  H        47.6077550762       23.5517466659       14.7968750146
  H        40.6365560434       17.0680695204       11.4088766196
  H        48.6870848264       14.0949380959        23.789784040938
  H        10.6812748860       12.4667575112       12.0933208310
  H        11.6894352360       10.5248157851       13.2970362447
  H        15.3932686619       11.1584821949       11.2052294002
  H        14.3649017754       13.0869451250        9.9899585939
  H        13.3754125349       11.6219611929       14.7530653607
  H        47.9301844293       14.2183226380        9.7107817057
  H        47.7799692502       14.3735769253        22.485053468938
  H        49.0830045793       18.5518438948       10.8671115742
  H        10.4161409848       14.1343601978        7.9987322281
  H        24.4817747943        3.0256463303        19.906696561238
  H        25.6233115597        4.8848348859        18.680331901738
  H        23.2554517713        7.7525772528        20.840414214838
  H        22.1317323807        5.8839056085        22.068269599438
  H        23.8099750191        5.7883494445        17.258587587438
  H        36.3563130408       32.1942998748        19.980183773038
  H        35.2068880547       30.3754434943        18.715188883938
  H        37.4669301126       27.4398794171        20.900615931938
  H        38.5962810342       29.2720660172        22.175378398138
  H        36.9847132701       29.4581734572        17.300337927938
  H        25.7462174354        8.6025952243        20.642571843238
  H        36.4570056788       32.2496242412       12.1136694085
  H        35.3410029420       30.4418901374       13.4175925387
  H        37.5389669038       27.4904114193       11.1887327873
  H        38.6292656775       29.3102076616        9.8717002634
  H        37.0216245482       29.4796551189       14.8629600801
  H        46.1099175263       26.5877613078       11.3855647288
  H        44.6684780623       35.1163011586        23.803716041438
  H        24.4321167876        3.0413084994       12.0902751143
  H        25.5591658899        4.8824045549       13.3429518010
  H        23.1596092640        7.7680394690       11.2428374428
  H        22.0441688767        5.9151362878        9.9898140876
  H        23.7837005666        5.7915550100       14.8202473846
  H        44.9543852297       34.3908579386        9.6954786109
  H        44.9024586769       34.2069864404        22.480488339438
  H        40.6669503947       33.2096549873       10.8535146184
  H        23.1502731276        1.9581143417        8.0054819032
  H        25.7913518775       19.6731871289        19.925817970938
  H        23.6246665733       19.7123826941        18.694166837038
  H        22.3589919829       16.1934480491        20.818831172438
  H        24.5342544597       16.1643552135        22.046296950838
  H        23.7267236033       17.6782276403        17.241222724038
  H        35.1539624736       15.4386599004        19.985306735138
  H        37.2726742303       15.3941297449        18.669692104638
  H        38.6940728101       18.8086158161        20.866685368038
  H        36.5700320485       18.8331330303        22.186916763938
  H        37.2224895712       17.3586351198        17.229714694138
  H        20.3465752117       17.9574744723        20.652067456138
  H        35.1540657911       15.4425039359       12.0828139541
  H        37.2899130521       15.3665643753       13.3716672525
  H        38.7375144445       18.7567287419       11.1543060214
  H        36.6006340526       18.8089232120        9.8573854794
  H        37.2320913294       17.3425634877       14.7898246096
  H        35.1476171485       26.6963432574       11.4161696904
  H        28.5025643763       21.0941226769        23.853645223538
  H        25.7951891161       19.6326858161       12.1678167531
  H        23.6050318427       19.7098909729       13.3694163861
  H        22.3261606994       16.1922579640       11.2514291580
  H        24.5157105163       16.1353877727       10.0464756365
  H        23.7157842931       17.6787671992       14.8030425378
  H        28.9766850762       21.7262299616        9.7737325147
  H        29.1951680681       21.7099955069        22.534650823038
  H        32.1853069426       18.5176500843       10.9340208559
  H        27.3990666914       19.0757001598        8.0713936640
  H        14.8589073377       19.6601105210       12.1293422702
  H        17.0251091587       19.7178217099       13.3627073122
  H        18.3208318894       16.2097953319       11.2382150991
  H        16.1504760897       16.1677451031       10.0044278807
  H        16.9340003275       17.7162266733       14.8248959718
  H        46.0892385326       15.4309621741       12.0558642799
  H        43.9618958490       15.3626797904       13.3581804478
  H        42.5425689261       18.8012708071       11.1982983950
  H        44.6703732233       18.8443291044        9.8850919103
  H        44.0172942935       17.3099429481       14.8184140502
  H        20.3189330130       17.9552425560       11.4127310042
  H        46.0436684938       15.3879586046        20.020094019438
  H        43.9151197815       15.3246938169        18.721708792638
  H        42.5227722609       18.7938876356        20.849155125338
  H        44.6574316938       18.8427095083        22.149492370138
  H        44.0070755312       17.2998040734        17.257672044838
  H        46.1993674569       26.6826203812        20.613143724938
  H        52.7411105078       21.0625529452        8.1946881508
  H        14.8779055559       19.6714304455        19.883820723638
  H        17.0757819307       19.7423633361        18.699011528138
  H        18.3260513817       16.2141451787        20.816787056038
  H        16.1305467205       16.1677435257        22.011930161238
  H        16.9446841365       17.7177000592        17.261821097238
  H        52.3222216319       21.6730744041        22.284099131138
  H        52.0128703381       21.7016868536        9.4956481414
  H        49.0677074016       18.6077503529        21.193815285338
  H        13.2476337480       19.0163130423        23.966165520238
  H        29.9271046327       12.4756992266       12.2648569240
  H        28.8552674032       10.5484919385       13.4395434054
  H        25.2501587655       11.1809323694       11.1812073297
  H        26.3415833409       13.0963592383        9.9993075145
  H        27.1304669571       11.6878864810       14.7965974141
  H        30.9582729434       22.8281438026       12.0106525027
  H        31.9693962265       24.7061250893       13.2994469956
  H        35.6842208521       24.1300928266       11.2102850420
  H        34.6568111852       22.2498719788        9.9189008792
  H        33.6356497883       23.6022782621       14.7674314413
  H        25.6972349341        8.5964440231       11.4080528564
  H        30.8969006234       22.6732901286        19.914094105438
  H        31.8993026369       24.5579284576        18.623370298438
  H        35.5341598421       24.1644928450        20.890790043538
  H        34.5097868210       22.2928458358        22.190078029638
  H        33.5945225517       23.5833304635        17.205786402738
  H        40.5989457288       17.0867294177        20.639370447438
  H        32.5069189029       14.1450103379        8.2350531264
  H        29.8767170487       12.5562262964        19.874354526638
  H        28.8483018944       10.6529845681        18.624544641438
  H        25.2196249132       11.1440168116        20.881321585338
  H        26.2720578674       13.0290254209        22.142516189738
  H        27.1319165622       11.6994085879        17.234648775938
  H        33.3082589356       14.2244304786        22.454345821438
  H        33.4086180781       14.3928937220        9.5969399700
  H        32.1088129159       18.4487923556        21.128232712138
  H        30.1847767931       14.1451805020        8.0777966289
  H        16.1180758381        2.9634546110       12.1293923004
  H        14.9529479428        4.8206296872       13.3221133494
  H        17.3671852852        7.6859765106       11.2108925284
  H        18.5158686144        5.8184230320       10.0111714672
  H        16.7539484953        5.7398938123       14.7715007051
  H        44.8276868914       32.1404256002       11.9773929331
  H        45.9372046715       30.3417066935       13.3067607535
  H        43.6838071840       27.3781227755       11.1516528290
  H        42.6009174284       29.1899291757        9.8089939843
  H        44.2309432808       29.4369946214       14.7688840953
  H        14.8512988462        8.5462515244       11.3632903088
  H        44.8998792321       32.2341071574        19.921580191238
  H        46.0248562344       30.4131369430        18.642124183438
  H        43.7639111274       27.4840808168        20.835376236938
  H        42.6460468517       29.3177641959        22.114452708338
  H        44.2690042005       29.4707322190        17.207938160938
  H        35.0023883926       26.6347674397        20.646540102038
  H        36.6054256205       35.1341991393        8.1804917025
  H        16.1433404431        3.0131714179        19.894164449838
  H        14.9738561531        4.8566502889        18.678440708738
  H        17.3970864333        7.7473064651        20.744219527938
  H        18.5440642922        5.8933630944        21.971758951338
  H        16.7650806985        5.7558608735        17.209065378938
  H        36.2790889436       34.4823066958        22.262996059938
  H        36.3815522440       34.2087578868        9.4990958128
  H        40.5794812461       33.2020325520        21.143796081938
  H        17.4708949248        1.9475074331        23.963920861938
  H        29.1933853118       19.1305327944       12.9642507840
  H        28.8191076851       18.7516161671        19.718378317438
  H        31.7470853768       15.7479493160        19.551341850238
  H        31.4311931786       15.4935763093       12.4765272129
  H        28.0927894755       17.8406517586       14.3889972224
  H        29.5161091508       15.2262144813       14.4430360747
  H        32.5719457277       17.2309051740        17.359600628138
  H        18.8539526200        0.8691658808       12.3351331188
  H        40.5282932694       35.2288211701        19.941814272438
  H        42.3241286216       34.4190962995        19.579848441638
  H        22.0876324571        0.6921824229       12.3515889951
  H        11.5971237308       18.7126812944       12.3825367781
  H        52.2646478857       18.4315621966        19.667007616038
  H        49.2558031122       16.4765174028        19.574088394638
  H        10.1501140172       15.7982241234       12.2929223398
  H        50.8500047094       17.6922174341        19.944031410938
  H        10.0460441429       17.3944650709       12.0519838888
  H        20.2154277197        0.0023610040       12.0418537126
  H        39.1840177685       36.1246394530        19.676279621838
 Ni        30.6888100273       17.6692719086        18.738701917038
 Ni        30.9043559902       16.2775785467        16.071235704538
 Ni        29.6392541862       18.2731965604        16.239645009338
 Ni        30.1413919794       17.2067951560       13.1658463943
  O        10.6499607154       14.3651199278        21.475680598638
  O        12.6132003067       14.6575964883        22.573745625038
  O        49.1478549688       16.8459141819        23.979572715938
  O        50.3502659764       20.9358345476        21.637934931038
  O        48.3485470590       20.5932713013        22.655765943738
  O        11.0518303223       17.0536807921        22.490599690238
  O        50.3212171338       20.8816171873       10.4068031744
  O        48.3468059599       20.5867288728        9.3271555879
  O        49.5437601209       18.2483952525       10.0682231694
  O        12.3591959166       18.6245428290        7.9998467175
  O        48.6932317264       14.1486340453        22.741072924738
  O         8.2099204661       14.2104033008        9.3225197038
  O        10.7354339254       14.5068133382       10.6643233431
  O        12.5718918012       14.5829076052        9.3285118692
  O        22.8442100736        2.0421072689        21.477331281638
  O        21.6052535111        3.5917749781        22.579640013838
  O        42.0582093932       34.1374068322        23.968774089138
  O        37.9812776564       33.1376990261        21.562611959138
  O        39.2175700712       31.5756174764        22.656085090438
  O        20.3084314758        1.0394474729        22.491913159038
  O        38.0244040900       33.1852756180       10.4156217123
  O        39.2182391120       31.5828624942        9.3278825085
  O        40.6522225254       33.7692734714       10.0601721606
  O        18.2554530231        1.3761691098        7.9967938889
  O        44.6222524682       35.1005147219        22.748570678138
  O        24.2054294364        0.0000097941        9.3207626213
  O        22.7528230073        2.0575395969       10.5836525984
  O        21.6241127923        3.5955936958        9.3420894864
  O        27.4912002264       18.7494294681        21.480838496038
  O        26.7599863430       16.9356457852        22.643160069038
  O        30.6575146959       19.4042267171        8.0293142877
  O        33.5880331133       16.2725442221        21.658277205838
  O        34.2743010357       18.1651113408        22.724866449538
  O        29.5714815056       17.0483646430        22.577361589538
  O        33.5621692328       16.3382945951       10.4079377243
  O        34.2955483229       18.2459442717        9.4059398185
  O        31.6434596807       18.3128643860       10.1558324706
  O        30.2934738740       15.1095985686        8.0854568967
  O        28.5516741643       21.0330875120        22.815305235538
  O        28.5146731618       20.9540821433        9.4069188076
  O        27.5221558504       18.6238960416       10.6742415584
  O        26.6955754405       16.9252180357        9.4072867165
  O        13.1505469967       18.6927888053       10.5877487212
  O        13.9208667902       16.9165367305        9.4059625575
  O        50.5960584088       19.3501200757        8.0208224718
  O        47.6833301491       16.3268949383       10.4171155521
  O        46.9508215036       18.1756145393        9.3252474979
  O        11.0699120649       17.0154728297        9.4896596644
  O        47.6757166547       16.3358945945        21.642563549038
  O        46.9259716722       18.2358033281        22.653439954838
  O        49.5685884614       18.3176635927        21.972188626538
  O        10.3188016128       15.1002164088        7.9970871106
  O        52.6707781282       21.0278506268        9.2418394233
  O        12.1468151537       20.8910868725        22.663026030938
  O        13.1079799967       18.6136016961        21.315283653338
  O        13.9573967542       16.9870530694        22.654888273938
  O        29.9882895084       14.4348343648       10.7281000396
  O        28.0852876107       14.6530791806        9.4969845591
  O        32.0764173710       16.8622351658        8.0719693245
  O        30.9817168999       20.8805375465       10.5051486054
  O        32.9129091249       20.6541404045        9.3251018630
  O        29.5642757829       17.0757621481        9.5736831777
  O        30.8530399657       20.8831324837        21.644145071338
  O        32.8710050776       20.5835923378        22.654831018238
  O        31.6800511525       18.2508121408        21.979242168438
  O        28.2848624919       18.6774066641        8.0588864530
  O        32.4913282734       14.2103179041        9.3232070515
  O        32.4061904527       14.2134290686        22.816223163938
  O        29.9129880357       14.4302229712        21.482701402638
  O        28.0330285163       14.5886521883        22.740166828538
  O        17.8891949994        1.9666155784       10.6628003366
  O        18.9561648390        3.5271443095        9.4079748396
  O        39.1685497855       34.1386577119        7.9971737913
  O        43.2801980911       33.0589257287       10.3317315747
  O        42.0344133426       31.5064283614        9.2416552302
  O        20.3176462515        1.0367154061        9.4801169007
  O        43.2760897135       33.1825531874        21.564659253838
  O        42.0052199664       31.5841019435        22.572776920638
  O        40.5789510977       33.7749365965        21.925741550138
  O        22.3673608755        1.3845749070        7.9979643911
  O        36.6727894215       35.0997219677        9.2332608287
  O        16.4456411659        0.0643392771        22.658138645638
  O        17.9364872694        2.0433994928        21.316158248838
  O        18.9189578932        3.5931503214        22.655718400838
  O        29.7284417861       18.6923518168        20.064235877938
  O        29.8210219037       19.1253915421       12.1620839867
  O        31.2618250695       16.3551904377        20.140077725638
  O        31.3521251534       16.3394722930       11.9943400627
  O        31.8627823233       16.6199565948        17.637150646838
  O        30.3755766791       15.6848186429       14.3972279202
  O        28.9744905347       18.2545081905       14.3950986039
  O        39.4568365426       35.2438807365        19.991776058738
  O        19.1417823868        0.0046252015       11.9904918923
  O        41.9693300381       35.1725552512        20.076796244438
  O        21.6912987148       -0.0693290643       11.8959801970
  O        51.3648033159       18.6143273433        19.995263130538
  O        10.7513648700       18.7471608099       11.9049097612
  O        50.0801834561       16.4128107063        20.081521675338
  O         9.5243748268       16.4831184096       11.9912169786
 Zr         9.2969125223       16.0526597287        22.172227388438
 Zr        49.8364484710       16.0066571492        9.7464736006
 Zr        22.0736573219        0.0303077399        22.178507171338
 Zr        42.4612759009       35.1540988432        9.8010130338
 Zr        29.5991157249       19.0543477537        22.203767014038
 Zr        29.5802756688       19.1749576292        9.7645826912
 Zr        11.0384639326       19.0516957866        9.8279112645
 Zr        11.0437791444       19.1546207184        22.241085346638
 Zr        31.3352788732       16.0724735973        9.8595686870
 Zr        31.3695947526       15.9936817539        22.238066421538
 Zr        18.6014951080       -0.0008257784        9.7633389695
 Zr        18.5070407026       -0.0069544391        22.203462454838
 Zr        12.3025858910       16.3235241257        23.980458541038
 Zr        48.6161067429       18.8328647403        8.0103527142
 Zr        20.3155386939        2.4741225961        23.980214676838
 Zr        40.6439061054       32.6877283859        23.968005460538
 Zr        28.3427888201       16.3134621748        8.0742479888
 Zr        32.6292498995       18.8165809169        8.0319320094
  H        29.5291696145       16.7942266400        16.724837585538
  H        30.5182283628       19.7894001521       12.3401160574
  H        30.3837529706       18.7392796109        17.580827749738
