     568
 i =      446, E =     -4744.4454281417
  C        11.8585852304       14.0536035285        21.731360706938
  C        12.4560991473       12.8905458926        21.013120818238
  C        11.7045402864       12.1718908208        20.071162672738
  C        12.2809056478       11.1096601706        19.378823644638
  C        13.6213617745       10.7396138210        19.606816031938
  C        14.3543529320       11.4428710233        20.580645687538
  C        13.7814801490       12.5078707751        21.272138665738
  C        14.2609594980        9.6489942231        18.833412246838
  C        14.2564468863        9.6569985218        17.411708377738
  C        13.7432908580       10.7591198134        16.657791433738
  C        49.1265372655       21.2333044760        21.869570362538
  C        48.5497430298       22.4011340420        21.142442499338
  C        49.2998849607       23.0686127388        20.161625255938
  C        48.7329554621       24.1077130617        19.428390509338
  C        47.4023223966       24.5091806254        19.656818706538
  C        46.6712096660       23.8600844629        20.670072643438
  C        47.2336628473       22.8152094887        21.399470359738
  C        46.7721652879       25.5869117455        18.859516780838
  C        46.7614016590       25.5574216468        17.437746888538
  C        47.2613287003       24.4423064765        16.694275206738
  C        14.8604303658        8.5706867537        16.698439241438
  C        14.8916758095        8.5969937393        19.510052013838
  C        49.1131093343       21.2034393718       10.1453442389
  C        48.5277532853       22.3647568991       10.8724914623
  C        49.2670946798       23.0256930216       11.8651873970
  C        48.6907521698       24.0602301744       12.5966459075
  C        47.3602284346       24.4567748675       12.3586178910
  C        46.6396458266       23.8115718543       11.3354057107
  C        47.2132061472       22.7756640151       10.6036289214
  C        46.7218351178       25.5317829787       13.1496368889
  C        46.7337035241       25.5282420273       14.5713351006
  C        47.2491087690       24.4290184757       15.3277206609
  C        40.6204595160       17.0883607226       15.3101699424
  C        40.6314406710       17.1015294920       12.5005576924
  C        11.8828389637       14.0865840994       10.2854689225
  C        12.4721802024       12.9107035655       10.9896981078
  C        11.7147366661       12.1776712039       11.9159851217
  C        12.2812971214       11.0952048558       12.5844258493
  C        13.6200197082       10.7212708096       12.3524028051
  C        14.3578912099       11.4366213374       11.3913556165
  C        13.7924839799       12.5178024162       10.7186574624
  C        14.2536800027        9.6245612779       13.1228309842
  C        14.2525750718        9.6446232312       14.5446719320
  C        13.7427505025       10.7535919075       15.2917473673
  C        22.5111034637        3.2447660372        21.741705427738
  C        23.2237792959        4.3501079004        21.039113799938
  C        24.2213532728        4.0695125148        20.093700042638
  C        24.8477058765        5.1083469047        19.409747006738
  C        24.4921273703        6.4503747571        19.650668605038
  C        23.5219547973        6.7225639353        20.632536765538
  C        22.8912663862        5.6854996840        21.315132715838
  C        25.0992666442        7.5564516858        18.874906491838
  C        25.0784175406        7.5475279272        17.452994054738
  C        24.3810998654        6.5465154048        16.704587588438
  C        38.3018054285       31.9292001426        21.839251350438
  C        37.5704860741       30.8402197992        21.130961194338
  C        36.6078570044       31.1448412391        20.156320146638
  C        35.9887542752       30.1252517251        19.438743583638
  C        36.3178116183       28.7758401087        19.673569299438
  C        37.2505637610       28.4786349421        20.685052177338
  C        37.8734533797       29.4969078864        21.401927002938
  C        35.7153700261       27.6849335772        18.875140026938
  C        35.7447263405       27.7026309686        17.453680397538
  C        36.4470024208       28.7081340635        16.717254357738
  C        25.7034762212        8.6172385044        16.734280392638
  C        25.6923204568        8.6332033682        19.546718571838
  C        38.3286475132       31.9627203359       10.1559936975
  C        37.6060478488       30.8909640322       10.8977434663
  C        36.6759819526       31.2017293580       11.9015404568
  C        36.0641081666       30.1846319065       12.6312421627
  C        36.3684277890       28.8316802686       12.3806812967
  C        37.2762667441       28.5309133405       11.3468132370
  C        37.8900718563       29.5444602541       10.6181651076
  C        35.7593014380       27.7335288332       13.1646448957
  C        35.7671854305       27.7276132700       14.5866054333
  C        36.4574634227       28.7202654978       15.3507066151
  C        46.1357576310       26.6209240684       15.2814440821
  C        46.0877940124       26.5800672524       12.4735572476
  C        22.4632339414        3.2557281342       10.2565347279
  C        23.1633083096        4.3636882495       10.9760930156
  C        24.1705348493        4.0757193154       11.9109167335
  C        24.8041277437        5.1044594483       12.6041713750
  C        24.4507103445        6.4510306242       12.3855410237
  C        23.4668827212        6.7323806063       11.4187094360
  C        22.8289132335        5.7038817239       10.7256761698
  C        25.0836125788        7.5479519132       13.1606156216
  C        25.0713551784        7.5423752712       14.5834529272
  C        24.3758327977        6.5452634254       15.3378524914
  C        26.6175516742       17.8587788040        21.772714587038
  C        25.3107529174       17.9058846913        21.048904828138
  C        25.0463201595       18.9076188062        20.101228121638
  C        23.8339894824       18.9256364107        19.414101935338
  C        22.8482424845       17.9467065253        19.654071165638
  C        23.1079676749       16.9685679907        20.632783010538
  C        24.3227015948       16.9440522631        21.316370951938
  C        21.5753681859       17.9321237870        18.889128724138
  C        21.5765054133       17.9132202979        17.466631757338
  C        22.7826206542       17.7916647619        16.706843064238
  C        34.4381357158       17.1962828830        21.908188417738
  C        35.7307516349       17.1437094530        21.164796101438
  C        35.9381456574       16.1684623707        20.176757176238
  C        37.1177906963       16.1541410116        19.438073780638
  C        38.1233965776       17.1131837176        19.667919575338
  C        37.9194610330       18.0685599186        20.681838849138
  C        36.7365553428       18.0888102837        21.417377719838
  C        39.3764340149       17.1190507092        18.878579494138
  C        39.3685077564       17.1222712071        17.456523123738
  C        38.1595365477       17.2402087506        16.701034304738
  C        20.3303429326       17.9312506308        16.757283239138
  C        20.3503620858       17.9334815739        19.570915478738
  C        34.4423563044       17.2365685165       10.1869858055
  C        35.7438115417       17.1351194394       10.9077151293
  C        35.9450768312       16.1593241472       11.8952564563
  C        37.1349661302       16.1283162525       12.6184027999
  C        38.1520117508       17.0720787220       12.3744752177
  C        37.9566642866       18.0203410362       11.3526997611
  C        36.7663790220       18.0564610645       10.6326416300
  C        39.4011004381       17.0883646194       13.1680973958
  C        39.3811509455       17.1072647259       14.5896950397
  C        38.1656846776       17.2315936694       15.3342837480
  C        35.1389611214       26.6466092891       15.2896574978
  C        35.1713432843       26.6623425834       12.4805796198
  C        26.5724404723       17.8285016671       10.3250856329
  C        25.2574109088       17.8737949316       11.0316106074
  C        24.9952152193       18.8766562550       11.9772268061
  C        23.7773511331       18.9025034048       12.6510697038
  C        22.7927077304       17.9251169804       12.4033827372
  C        23.0496312802       16.9468767211       11.4257547614
  C        24.2680385815       16.9192401525       10.7498337788
  C        21.5290675566       17.9067500046       13.1763139157
  C        21.5525259595       17.8978983189       14.5978943985
  C        22.7706930004       17.7836898842       15.3405813156
  C        14.0465452111       17.8289293836       10.2887273087
  C        15.3512914112       17.8862302090       11.0140755982
  C        15.6082982000       18.8901909808       11.9607574268
  C        16.8173521585       18.9113462669       12.6536350952
  C        17.8036534028       17.9313278392       12.4219260028
  C        17.5514359730       16.9515150456       11.4431335397
  C        16.3418110133       16.9258116340       10.7518820931
  C        19.0727216280       17.9144310053       13.1911934739
  C        19.0710810972       17.9114480688       14.6136977368
  C        17.8637656972       17.8130203194       15.3745006108
  C        46.8023735099       17.2161918461       10.1571940886
  C        45.5093451890       17.1460204850       10.8978440818
  C        45.3050310542       16.1629668595       11.8787648559
  C        44.1212356770       16.1351400607       12.6113530808
  C        43.1104884657       17.0901266197       12.3860299870
  C        43.3114716547       18.0518684800       11.3772246216
  C        44.4961849539       18.0836867866       10.6453310636
  C        41.8573377971       17.0944837000       13.1762024637
  C        41.8658199959       17.0991051729       14.5984516601
  C        43.0761250404       17.1980623144       15.3544660750
  C        20.3176435796       17.9225771757       15.3224126286
  C        20.2971344771       17.8950983656       12.5094140218
  C        46.7848804950       17.2322886777        21.876371574538
  C        45.4834879231       17.1282859559        21.156846643238
  C        45.2654563521       16.1291684143        20.195853126838
  C        44.0782150348       16.1017732822        19.468128255838
  C        43.0786604483       17.0707330689        19.683143205838
  C        43.2878824169       18.0407744727        20.681415603838
  C        44.4760011902       18.0742663179        21.404729913138
  C        41.8310745207       17.0897837758        18.887505939038
  C        41.8525469581       17.0954589555        17.466122420438
  C        43.0699573405       17.1933591463        16.721276799938
  C        46.1534716965       26.6373444332        16.715989012138
  C        46.1621478547       26.6559922348        19.525644859338
  C        14.0448787206       17.8312894801        21.698439568238
  C        15.3656984624       17.9046625283        21.007201455338
  C        15.6401635210       18.9212306202        20.080281282438
  C        16.8691314019       18.9579617921        19.425341577538
  C        17.8509268356       17.9772296421        19.671720256538
  C        17.5831727426       16.9892461530        20.636606629038
  C        16.3562833583       16.9520789534        21.295097993438
  C        19.1183484383       17.9524317875        18.903174068838
  C        19.0949622905       17.9299712064        17.481655833038
  C        17.8753562859       17.8213173813        16.740518124438
  C        28.7949626307       14.1164434468       10.3971682436
  C        28.1961082487       12.9361878159       11.0844449309
  C        28.9212013295       12.2042226869       12.0361287796
  C        28.3305451700       11.1203897414       12.6816874720
  C        27.0001580403       10.7465031107       12.4025883318
  C        26.2977007042       11.4597562300       11.4145188280
  C        26.8865996048       12.5415684612       10.7653481596
  C        26.3346955286        9.6621452320       13.1612454356
  C        26.3159477397        9.6891891138       14.5822802455
  C        26.8132534553       10.8039624447       15.3291452898
  C        32.1802568064       21.2427679718       10.1438404798
  C        32.7745222218       22.4101996215       10.8595998638
  C        32.0263898492       23.0861414484       11.8357729922
  C        32.5965225073       24.1252466713       12.5645333632
  C        33.9302202500       24.5163007239       12.3377788646
  C        34.6605683227       23.8594302402       11.3295823529
  C        34.0929324255       22.8145875637       10.6027088492
  C        34.5580239287       25.5913780941       13.1392037725
  C        34.5504139994       25.5616100925       14.5608821198
  C        34.0470187415       24.4433204224       15.2976531644
  C        25.7047699661        8.6109744220       15.2995552512
  C        25.7015690937        8.6098852072       12.4862943650
  C        32.1197608811       21.1958642780        21.838317162938
  C        32.7044183488       22.3554969821        21.103586491638
  C        31.9698602407       23.0142436584        20.105623685038
  C        32.5448924353       24.0537716124        19.378980041138
  C        33.8694677952       24.4626858443        19.630156516638
  C        34.5855856340       23.8186668205        20.657254421838
  C        34.0142614820       22.7755745578        21.381347036538
  C        34.5067951133       25.5476200365        18.849206360338
  C        34.5234384411       25.5394642427        17.427176274238
  C        34.0336421352       24.4329108190        16.664265683638
  C        40.6134931092       17.0914703235        16.745029209938
  C        40.6015185022       17.1195230604        19.555284105338
  C        28.7194978395       14.0971090598        21.774340464038
  C        28.1146580242       12.9447724831        21.043335267638
  C        28.8548425675       12.2383092049        20.082831769838
  C        28.2778144537       11.1737378790        19.394707965138
  C        26.9442188998       10.7894776444        19.640759709638
  C        26.2220075295       11.4817271889        20.630941661238
  C        26.7978741322       12.5456892406        21.322322721638
  C        26.3058903805        9.6953967339        18.870191116638
  C        26.3024881681        9.7064292197        17.448375482338
  C        26.8048480422       10.8133692443        16.694723053738
  C        18.1354214051        3.1809368877       10.3171350522
  C        17.4059897343        4.2782046272       11.0156687974
  C        16.3905394912        3.9997946478       11.9434589717
  C        15.7427741661        5.0397420093       12.6069795666
  C        16.0943832594        6.3834951249       12.3670538204
  C        17.0834152125        6.6530646921       11.4029387796
  C        17.7325420048        5.6157535427       10.7378706132
  C        15.4701183778        7.4912017576       13.1301318480
  C        15.4855749363        7.4906259421       14.5518464241
  C        16.1871924830        6.4970577339       15.3050212095
  C        42.9458894378       31.8594341482       10.0728758627
  C        43.6462292265       30.7718039425       10.8167937736
  C        44.5920109618       31.0931144066       11.8026425065
  C        45.1977194694       30.0875641690       12.5502756841
  C        44.8710635202       28.7345153778       12.3356250331
  C        43.9449356068       28.4201846213       11.3226839883
  C        43.3361146998       29.4253308279       10.5746501421
  C        45.4886965550       27.6552514995       13.1388256110
  C        45.4930274294       27.6810197804       14.5605102927
  C        44.8059842025       28.6891066706       15.3071127566
  C        14.8566495909        8.5631433849       15.2642114455
  C        14.8747441654        8.5629315091       12.4515528993
  C        42.9464571267       31.9615160573        21.798733013138
  C        43.6916340347       30.8854479761        21.085239452038
  C        44.6563867670       31.1913478836        20.113076032138
  C        45.2778977058       30.1717589461        19.395365367738
  C        44.9539333383       28.8214416274        19.632817026438
  C        44.0202052717       28.5237750491        20.643372408238
  C        43.3919569461       29.5405454638        21.355549749038
  C        45.5629947192       27.7240572300        18.847568957838
  C        45.5335120260       27.7175079765        17.426269966338
  C        44.8272328304       28.7077495273        16.673295648938
  C        35.1263770085       26.6346750639        16.724415896338
  C        35.1142707536       26.6067510509        19.534282378838
  C        18.1486198107        3.2469099464        21.696454561738
  C        17.4299955197        4.3438134744        20.987176340238
  C        16.4149765974        4.0525266792        20.063412966338
  C        15.7666619465        5.0831533610        19.388008569038
  C        16.1210987500        6.4284133869        19.610922199238
  C        17.1122128215        6.7117981305        20.568456113438
  C        17.7598944964        5.6828973079        21.248237968138
  C        15.4906294412        7.5241227474        18.838467629338
  C        15.4966462898        7.5075792536        17.417328432638
  C        16.1934498630        6.5059019396        16.670628955438
  H        10.6724899966       12.4662063921        19.893965781538
  H        11.6946664412       10.5513647506        18.652100626338
  H        15.3912630430       11.1679972630        20.762653349638
  H        14.3507753581       13.0708543906        22.007890666038
  H        13.3761935568       11.6312045392        17.191105025938
  H        50.3226557218       22.7486997345        19.977033605238
  H        49.3194759549       24.6230988962        18.670921466238
  H        45.6415903302       24.1605869582        20.852982529038
  H        46.6624849000       22.2897898825        22.161320657138
  H        47.6296847564       23.5758491985        17.235961497838
  H        14.8718092516        8.5881296606        20.598356307538
  H        50.2872272763       22.7030244289       12.0599277133
  H        49.2691833719       24.5758578558       13.3600005627
  H        45.6100925242       24.1084847691       11.1466237106
  H        46.6521822097       22.2532514765        9.8323810031
  H        47.6077443067       23.5518319314       14.7968354386
  H        40.6351071941       17.0650573133       11.4128143504
  H        48.6869577207       14.0949872548        23.789778490838
  H        10.6813222591       12.4668834555       12.0935056351
  H        11.6895152106       10.5249235071       13.2972217494
  H        15.3932321463       11.1585233599       11.2052256962
  H        14.3647168238       13.0870266641        9.9899263356
  H        13.3758292379       11.6221572693       14.7530967013
  H        47.9300259278       14.2185568605        9.7106780668
  H        47.7799083239       14.3734849589        22.484934904938
  H        49.0823461689       18.5518457002       10.8669598249
  H        10.4156180523       14.1343953016        7.9987866059
  H        24.4839212215        3.0308592359        19.905403756538
  H        25.6219894328        4.8899432634        18.677475386838
  H        23.2393433497        7.7554959340        20.824935308538
  H        22.1204543502        5.8865873430        22.055133208638
  H        23.8187023273        5.7893181822        17.243132480938
  H        36.3698039146       32.1881812133        19.963260845638
  H        35.2420034595       30.3649198789        18.684962299838
  H        37.5120654828       27.4394182973        20.873436855438
  H        38.6191702693       29.2752318917        22.161695793938
  H        37.0098487105       29.4592141820        17.263765924738
  H        25.7225819721        8.6175106079        20.634725554238
  H        36.4535562782       32.2463581250       12.1070601895
  H        35.3371321919       30.4306577115       13.4020708092
  H        37.5227477493       27.4901993802       11.1470921063
  H        38.6133717512       29.3175073391        9.8387728915
  H        37.0295240154       29.4801849789       14.8262241952
  H        46.1089575661       26.5872982868       11.3855160833
  H        44.6681414182       35.1160444516        23.803736930938
  H        24.4472959834        3.0369105742       12.0761951429
  H        25.5881206015        4.8735526009       13.3222648414
  H        23.1821261149        7.7673842188       11.2406913013
  H        22.0535143676        5.9187196743        9.9939253294
  H        23.8088497885        5.7875901465       14.8047487220
  H        44.9532625703       34.3898077842        9.6947790830
  H        44.9012052044       34.2066366316        22.480326473238
  H        40.6655891304       33.2087068146       10.8528902896
  H        23.1507387605        1.9575127886        8.0046178481
  H        25.8007416517       19.6699165575        19.920103739238
  H        23.6344033196       19.7082156799        18.685153347138
  H        22.3584115749       16.2042332000        20.827723305338
  H        24.5336097565       16.1751588435        22.056033651838
  H        23.7233560103       17.6735322499        17.236737564638
  H        35.1571315551       15.4336094521        19.997068841338
  H        37.2765882580       15.3913796820        18.678943927238
  H        38.6874329877       18.8176440929        20.863467630638
  H        36.5628092805       18.8414782168        22.182971447638
  H        37.2210909650       17.3708671542        17.232530360538
  H        20.3563127021       17.9718181788        20.658848495938
  H        35.1504002170       15.4443162049       12.0955031730
  H        37.2886909210       15.3691418428       13.3821349046
  H        38.7346555271       18.7557643938       11.1586191012
  H        36.5952490734       18.8080207676        9.8657828437
  H        37.2316932845       17.3552485760       14.7936068696
  H        35.1445058744       26.6886754364       11.3928769990
  H        28.5104644341       21.0891396887        23.890153421338
  H        25.7587784424       19.6278640127       12.1661373930
  H        23.5734297482       19.6849836405       13.3788196673
  H        22.2977767845       16.1853500698       11.2288377655
  H        24.4824368754       16.1524276736       10.0092281669
  H        23.7022774716       17.6596767342       14.7965960482
  H        28.9998301737       21.7260629975        9.7473509223
  H        29.1585669247       21.7486466936        22.547742355038
  H        32.0796484591       18.5658052551       10.9970892444
  H        27.4083800453       19.0827434763        8.0841087823
  H        14.8500182748       19.6495506597       12.1383400546
  H        17.0127395580       19.6962051857       13.3812113892
  H        18.3023869309       16.1868347121       11.2552323767
  H        16.1355466352       16.1560446560       10.0120095475
  H        16.9214228144       17.6980711085       14.8467809494
  H        46.0914124322       15.4342841947       12.0609305359
  H        43.9650832434       15.3654663612       13.3640468663
  H        42.5395543153       18.7973730175       11.1977176150
  H        44.6663744847       18.8412371284        9.8838229964
  H        44.0167728160       17.3097538723       14.8228435285
  H        20.2913589566       17.9249108104       11.4212816154
  H        46.0417401288       15.3876445488        20.021293369738
  H        43.9122026545       15.3254224017        18.724412347238
  H        42.5218854255       18.7938677071        20.854299801238
  H        44.6574404170       18.8418735316        22.153029356638
  H        44.0059885959       17.3003293520        17.261809797238
  H        46.1987076435       26.6823852637        20.613104732038
  H        52.7410128437       21.0625799471        8.1946641352
  H        14.8805411769       19.6762173191        19.889873494838
  H        17.0813298922       19.7492648019        18.709569660438
  H        18.3325948331       16.2255322649        20.834127311238
  H        16.1339362049       16.1766900488        22.024156518738
  H        16.9417444318       17.7127490922        17.284266016938
  H        52.3220051464       21.6731343774        22.284236892438
  H        52.0129532754       21.7018677047        9.4956526153
  H        49.0669588856       18.6077941305        21.194081060538
  H        13.2472129077       19.0165513178        23.967066399538
  H        29.9447013263       12.4987664446       12.2569315047
  H        28.8951738416       10.5511794483       13.4169589722
  H        25.2697543937       11.1817348476       11.1910523723
  H        26.3415395092       13.1125453491       10.0177238165
  H        27.1763496674       11.6733510417       14.7895297273
  H        31.0025547894       22.7695293735       12.0193101421
  H        32.0120840232       24.6480326531       13.3184663834
  H        35.6929752178       24.1520589976       11.1494402747
  H        34.6628172416       22.2810864490        9.8454469313
  H        33.6969873375       23.5723585993       14.7508559365
  H        25.7342980455        8.5903652751       11.3983573821
  H        30.9502748345       22.6915076843        19.908047010338
  H        31.9689536052       24.5661620285        18.611489828338
  H        35.6107601345       24.1235678152        20.857021326638
  H        34.5725246475       22.2564129495        22.156903799538
  H        33.6743801712       23.5529887164        17.190334771438
  H        40.5968471898       17.0889887296        20.643201233438
  H        32.5089246755       14.1513509493        8.2666862193
  H        29.8857217295       12.5313489337        19.897301947738
  H        28.8595298549       10.6213424477        18.659916366938
  H        25.1905750724       11.1970161072        20.828589807038
  H        26.2374448204       13.0948201270        22.075321917738
  H        27.1600018839       11.6903093407        17.227894532038
  H        33.2909567432       14.1916862186        22.424213728938
  H        33.4036743944       14.4101597887        9.6081966669
  H        32.1426329857       18.5288736779        21.171279666538
  H        30.2115439150       14.1884032618        8.0777119770
  H        16.1187123356        2.9632615358       12.1300446666
  H        14.9535017766        4.8202858035       13.3228123941
  H        17.3655011975        7.6859812666       11.2095408120
  H        18.5142712102        5.8184114424       10.0096936239
  H        16.7536916007        5.7396741747       14.7715205197
  H        44.8284604104       32.1401755796       11.9766892005
  H        45.9377470995       30.3412619714       13.3060767708
  H        43.6819341588       27.3781486918       11.1528113361
  H        42.5992495922       29.1899503145        9.8102385549
  H        44.2305549815       29.4368092496       14.7688003957
  H        14.8507687706        8.5460590490       11.3633363216
  H        44.9000753642       32.2340131794        19.921750966538
  H        46.0249169890       30.4129428609        18.642229267238
  H        43.7629842973       27.4840686832        20.834728110938
  H        42.6452747786       29.3176929237        22.113798943438
  H        44.2686406870       29.4705896267        17.207857223438
  H        35.0724661873       26.6173824583        20.621805675638
  H        36.6050022839       35.1340646983        8.1806788502
  H        16.1440527895        3.0129306474        19.893541709938
  H        14.9744693829        4.8562621205        18.677789584638
  H        17.3954429595        7.7472977805        20.745594295038
  H        18.5425284923        5.8933297282        21.973272322138
  H        16.7648457870        5.7556278084        17.209064323438
  H        36.2786129543       34.4822940736        22.263115827438
  H        36.3808181537       34.2092347300        9.4997512673
  H        40.5797262609       33.2020892834        21.143493614338
  H        17.4708485596        1.9471602769        23.963838951138
  H        29.0640722477       19.4248215850       12.5054947264
  H        28.8129440626       18.6013222332        19.856708623438
  H        30.4648090130       15.6784805958        19.912370808838
  H        31.1563699111       15.6031427558       12.5128579276
  H        27.9248916139       17.8688258715       14.6730616000
  H        29.0183057416       15.5649216402       14.6294109493
  H        30.1284593499       19.8569387123        18.023361419538
  H        32.0574035093       16.0093992083        18.023116805038
  H        18.8536309033        0.8690921828       12.3354057431
  H        40.5277803374       35.2292550555        19.941945483938
  H        42.3237158364       34.4186781149        19.580750750638
  H        22.0879575565        0.6919880581       12.3515417047
  H        11.5970473776       18.7128442059       12.3823023501
  H        52.2647267571       18.4309095728        19.667266249938
  H        49.2545567873       16.4772427481        19.574693540138
  H        10.1501114356       15.7982266547       12.2928387903
  H        50.8497179537       17.6924693085        19.944079936738
  H        10.0459016910       17.3945122650       12.0520216621
  H        20.2148003777        0.0022625670       12.0420292747
  H        39.1833881095       36.1242832113        19.676114198238
 Ni        30.7771146875       17.7632916794        18.903262439238
 Ni        30.7453013667       16.5085030723       15.988265924938
 Ni        29.8010082961       18.6258657242       15.907994845038
 Ni        30.0592551792       17.4966260730       13.3252395603
  O        10.6498942728       14.3651709860        21.475588234038
  O        12.6131573734       14.6575196365        22.573683972538
  O        49.1477607718       16.8459835212        23.979577410638
  O        50.3500908397       20.9360651286        21.638025738938
  O        48.3484674944       20.5932785386        22.655806004138
  O        11.0513976853       17.0539866180        22.490419854638
  O        50.3210028589       20.8816574059       10.4068064939
  O        48.3467353057       20.5867161924        9.3271115696
  O        49.5435396309       18.2484640229       10.0682863213
  O        12.3588698352       18.6245697854        7.9997338192
  O        48.6931848936       14.1486216625        22.741059682738
  O         8.2098491704       14.2104029572        9.3225479197
  O        10.7353124115       14.5067252704       10.6643516959
  O        12.5717935725       14.5828503581        9.3284940607
  O        22.8449669027        2.0438464152        21.476825083638
  O        21.6057105030        3.5926636272        22.579266643338
  O        42.0581365976       34.1372907451        23.968699599238
  O        37.9815360350       33.1377007138        21.562481908238
  O        39.2180414506       31.5760592042        22.656327794238
  O        20.3084348042        1.0396688581        22.491889105138
  O        38.0250935131       33.1867294765       10.4147773455
  O        39.2191976967       31.5839752378        9.3264204358
  O        40.6523224242       33.7693591083       10.0602254473
  O        18.2555723366        1.3760636401        7.9968129584
  O        44.6221964387       35.1005525417        22.748511522538
  O        24.2054113997       -0.0000184454        9.3208136744
  O        22.7532195852        2.0575638332       10.5838491204
  O        21.6250270269        3.5966459085        9.3436139396
  O        27.4983413620       18.7492870342        21.480660235438
  O        26.7620415928       16.9365376925        22.643840085238
  O        30.6678857433       19.4101401972        8.0675633283
  O        33.5802063182       16.2800577354        21.654603582538
  O        34.2741426110       18.1665301960        22.727307369838
  O        29.5718140783       17.0652902517        22.572262692638
  O        33.5562658469       16.3399614965       10.4150399285
  O        34.3009598390       18.2396515676        9.4076522113
  O        31.6502194518       18.3184957067       10.1606651011
  O        30.3186930137       15.1537435552        8.0847473596
  O        28.5558088073       21.0370010141        22.830347225938
  O        28.5148131288       20.9565160388        9.4037050658
  O        27.4583784492       18.6797202828       10.6603627841
  O        26.6942655469       16.9304273928        9.4128874927
  O        13.1488661476       18.6929840158       10.5875114748
  O        13.9195451108       16.9162187380        9.4051361281
  O        50.5957433772       19.3501793896        8.0205828379
  O        47.6830513795       16.3269842515       10.4171881263
  O        46.9505032444       18.1755405925        9.3255258257
  O        11.0695364717       17.0156384702        9.4897202689
  O        47.6756669510       16.3358709401        21.642648034038
  O        46.9262368537       18.2357927699        22.653653609738
  O        49.5684094480       18.3177374190        21.972104712638
  O        10.3185414481       15.1002702007        7.9971264533
  O        52.6707411195       21.0279061648        9.2418341004
  O        12.1468021547       20.8911652627        22.662985841638
  O        13.1080923725       18.6136724514        21.315376300438
  O        13.9571352072       16.9869378391        22.655274907838
  O        29.9644821976       14.5026933817       10.7426137519
  O        28.0812876877       14.6569823609        9.4869120026
  O        32.0824117207       16.8701186745        8.0866406690
  O        30.9664350690       20.9545786207       10.4081548011
  O        32.9475996538       20.6014715923        9.3391221387
  O        29.5633767793       17.0833170757        9.5772932921
  O        30.9059948012       20.8766381250        21.575363342738
  O        32.8802919028       20.5848715611        22.658252764438
  O        31.6861328451       18.2518824864        21.983871355138
  O        28.2920974068       18.6804496510        8.0753352103
  O        32.4886250418       14.2154119778        9.3347198687
  O        32.4003173960       14.2144425200        22.811714866238
  O        29.8743956515       14.5069976148        21.402926732138
  O        28.0415411547       14.5867915080        22.739772046038
  O        17.8892184043        1.9666852857       10.6628097303
  O        18.9562981579        3.5271755547        9.4079752374
  O        39.1687297438       34.1388498900        7.9971556642
  O        43.2802136179       33.0589571048       10.3316690923
  O        42.0345214384       31.5064684522        9.2416015956
  O        20.3177610715        1.0367749462        9.4801726853
  O        43.2760822650       33.1826068396        21.564702475938
  O        42.0052851688       31.5841110123        22.572765290038
  O        40.5789987842       33.7749460376        21.925483075038
  O        22.3673380409        1.3847013847        7.9979405947
  O        36.6727224290       35.0998319383        9.2332706263
  O        16.4455297858        0.0642708143        22.658040331138
  O        17.9364678335        2.0434009187        21.316164830138
  O        18.9191142826        3.5931290525        22.655769529838
  O        29.7365504448       18.8273918126        20.083180877738
  O        29.8103572162       18.9863373551       12.0538634360
  O        31.1729008126       16.3330801272        20.084536104738
  O        31.2587763956       16.4699350591       12.0750143110
  O        31.6767354138       16.7854244164        17.571124196938
  O        29.9445942189       15.8212222587       14.4832280428
  O        30.4597873467       19.0576118007        17.575072381538
  O        28.6703335904       18.4628349436       14.4804680782
  O        39.4567456578       35.2437662366        19.991755849338
  O        19.1415435177        0.0046909362       11.9905579498
  O        41.9698127794       35.1730124907        20.077062742938
  O        21.6913846772       -0.0693137444       11.8958662043
  O        51.3649281121       18.6142661168        19.995255619138
  O        10.7511686074       18.7472077020       11.9049328712
  O        50.0792297227       16.4128201929        20.081580895838
  O         9.5243253916       16.4830936337       11.9912385408
 Zr         9.2961261553       16.0529007833        22.172155514838
 Zr        49.8357450741       16.0068914052        9.7465777641
 Zr        22.0730570184        0.0295053645        22.178955534838
 Zr        42.4607601781       35.1530098471        9.8008705415
 Zr        29.6228714116       19.0906699228        22.286470926038
 Zr        29.5803542395       19.1853971586        9.8879240898
 Zr        11.0374517679       19.0521161847        9.8276917581
 Zr        11.0431915574       19.1549491852        22.241153447538
 Zr        31.3337902809       16.1164404807        9.9159155117
 Zr        31.4001957639       16.0240850738        22.293467097038
 Zr        18.6009749571       -0.0016397551        9.7633749274
 Zr        18.5063103702       -0.0081361535        22.203546998038
 Zr        12.3013246347       16.3236501560        23.980127652938
 Zr        48.6152683313       18.8328857623        8.0104364291
 Zr        20.3151576099        2.4730986997        23.980575365438
 Zr        40.6431584305       32.6865290835        23.967909650838
 Zr        28.3505870372       16.3509102214        8.0863594950
 Zr        32.6304012283       18.8422910577        8.0602403662
