     575
 i =      166, E =     -4794.9465061674
  C        11.8588003821       14.0535118887       13.7364161244
  C        12.4563398713       12.8906518380       13.0180718679
  C        11.7045396441       12.1714786323       12.0766808000
  C        12.2809424927       11.1092645166       11.3843772751
  C        13.6216400359       10.7397522358       11.6118566888
  C        14.3549584291       11.4436504852       12.5849623471
  C        13.7820535199       12.5086448102       13.2764290909
  C        14.2611451344        9.6490448316       10.8385033069
  C        14.2563425056        9.6569035659        9.4168114563
  C        13.7431242514       10.7590207459        8.6629332211
  C        49.1269748103       21.2331949117       13.8745495295
  C        48.5502307931       22.4012171659       13.1474869592
  C        49.3002005279       23.0684496764       12.1664036565
  C        48.7332546047       24.1075884492       11.4332000176
  C        47.4027829784       24.5093425874       11.6619896150
  C        46.6719161029       23.8606130716       12.6756511209
  C        47.2343895877       22.8157096657       13.4049849307
  C        46.7724907680       25.5870242664       10.8647442583
  C        46.7612826963       25.5573133401        9.4429876444
  C        47.2610951438       24.4421620643        8.6994960826
  C        14.8602856186        8.5705696692        8.7035568082
  C        14.8919877301        8.5971481314       11.5151619218
  C        49.1133200947       21.2034502451        2.1504624533
  C        48.5279453958       22.3648573185        2.8776766769
  C        49.2670550536       23.0253519859        3.8708102069
  C        48.6907271616       24.0599153396        4.6022774675
  C        47.3604151196       24.4568809582        4.3638266368
  C        46.6401078622       23.8121771491        3.3401032215
  C        47.2136700189       22.7762629597        2.6083369379
  C        46.7218914880       25.5318068121        5.1548497672
  C        46.7334999666       25.5281258830        6.5765542831
  C        47.2487938211       24.4288481137        7.3329439108
  C        40.6366777323       17.1621719633        7.3260725584
  C        40.6587087392       17.1843573130        4.5172542257
  C        11.8830921004       14.0865460798        2.2906513099
  C        12.4724609564       12.9108410202        2.9949452656
  C        11.7148732338       12.1774641986        3.9208600747
  C        12.2814932697       11.0950093842        4.5892386931
  C        13.6204132519       10.7215181091        4.3575957044
  C        14.3584920031       11.4372986568        3.3970410824
  C        13.7930294695       12.5184685591        2.7243800313
  C        14.2539991398        9.6247373379        5.1279708899
  C        14.2525536779        9.6445986402        6.5498067497
  C        13.7426231662       10.7535152281        7.2968898547
  C        22.5126325638        3.2441090663       13.7482552103
  C        23.2292738468        4.3478285781       13.0492578141
  C        24.2260345057        4.0649702358       12.1036059866
  C        24.8555505132        5.1026177244       11.4212362216
  C        24.5039881307        6.4452144162       11.6643653398
  C        23.5356651106        6.7195898832       12.6473175654
  C        22.9013738389        5.6837542631       13.3281131387
  C        25.1119824621        7.5499413286       10.8882880948
  C        25.0832118791        7.5428746396        9.4668876000
  C        24.3787098032        6.5449666071        8.7211128470
  C        38.3036219185       31.9295125411       13.8439694245
  C        37.5763153245       30.8384259681       13.1341775343
  C        36.6185034633       31.1395475351       12.1540466065
  C        36.0046162395       30.1171049573       11.4359145998
  C        36.3336289469       28.7688648065       11.6771148570
  C        37.2617076623       28.4751848572       12.6937028889
  C        37.8799775635       29.4963491505       13.4102671060
  C        35.7341092006       27.6756172927       10.8800627886
  C        35.7670191331       27.6902972175        9.4588757015
  C        36.4751474078       28.6915659267        8.7221546942
  C        25.7069338344        8.6122668596        8.7469023741
  C        25.7114487113        8.6234578826       11.5589213984
  C        38.3296188401       31.9624909546        2.1614102359
  C        37.6098575999       30.8884141238        2.9039872685
  C        36.6836357183       31.1957308679        3.9122012315
  C        36.0761710579       30.1760069974        4.6422363015
  C        36.3806800388       28.8240175529        4.3868224005
  C        37.2845618552       28.5266595905        3.3486808686
  C        37.8943662454       29.5428795239        2.6202726397
  C        35.7745482103       27.7238023707        5.1705183453
  C        35.7875244004       27.7150619680        6.5923544672
  C        36.4846400277       28.7036394583        7.3556707092
  C        46.1354859754       26.6207636139        7.2866884548
  C        46.0880989883       26.5802711383        4.4788076432
  C        22.4610814381        3.2558178720        2.2627926796
  C        23.1554844732        4.3638936410        2.9855957431
  C        24.1581590040        4.0769589782        3.9255872168
  C        24.7867711773        5.1064641703        4.6217274501
  C        24.4328888171        6.4525936239        4.4006775304
  C        23.4533559316        6.7327703748        3.4291134692
  C        22.8200606268        5.7035233756        2.7333684894
  C        25.0647621827        7.5497838812        5.1751062475
  C        25.0593146387        7.5423628928        6.5979076985
  C        24.3654556879        6.5457493884        7.3544810354
  C        26.6201116377       17.8596781675       13.7798573299
  C        25.3115183211       17.9021608910       13.0546617041
  C        25.0563276924       18.8928289206       12.0936488306
  C        23.8435155511       18.9128477111       11.4071974754
  C        22.8498327075       17.9448908372       11.6591580169
  C        23.1022424944       16.9761007587       12.6486688908
  C        24.3169979957       16.9510468148       13.3329111397
  C        21.5767800665       17.9297949524       10.8945572701
  C        21.5761702964       17.9052573870        9.4720024950
  C        22.7813991621       17.7789826420        8.7113490306
  C        34.4400231095       17.1958333226       13.9180698727
  C        35.7310140175       17.1565364078       13.1671646260
  C        35.9404003606       16.1911016278       12.1701103952
  C        37.1195008549       16.1877584076       11.4298702128
  C        38.1223797469       17.1470300736       11.6702844672
  C        37.9155351460       18.0935320588       12.6912205270
  C        36.7325051541       18.1035368891       13.4266190478
  C        39.3782292162       17.1596378025       10.8871222716
  C        39.3762284258       17.1794508579        9.4660158553
  C        38.1704315788       17.3048783317        8.7065107296
  C        20.3296818859       17.9237075196        8.7633186444
  C        20.3517123306       17.9350226820       11.5764278348
  C        34.4790058718       17.2458072740        2.1844444397
  C        35.7836732578       17.1756748550        2.9060543296
  C        36.0020381838       16.1926946092        3.8825239812
  C        37.1871515267       16.1811102040        4.6125149739
  C        38.1817744346       17.1512475359        4.3833013730
  C        37.9706907607       18.1085967166        3.3740403069
  C        36.7828344617       18.1257358070        2.6479812653
  C        39.4272574625       17.1744212465        5.1801351322
  C        39.4012207657       17.1873999732        6.6006647899
  C        38.1821140947       17.3064073337        7.3399585084
  C        35.1559604170       26.6362985371        7.2958855306
  C        35.1821939279       26.6547424118        4.4869140540
  C        26.5702274439       17.8220430711        2.3330149064
  C        25.2544934906       17.8713818209        3.0375354605
  C        24.9890583218       18.8757046967        3.9804407671
  C        23.7713429394       18.8996649372        4.6544573709
  C        22.7893188095       17.9194442548        4.4082868922
  C        23.0482488541       16.9408613227        3.4315918730
  C        24.2669673816       16.9145742992        2.7565160889
  C        21.5262213489       17.8993340586        5.1818113699
  C        21.5505610289       17.8887009163        6.6032956106
  C        22.7690377988       17.7713196564        7.3450636329
  C        14.0464372304       17.8285028525        2.2941601007
  C        15.3502107108       17.8845268480        3.0199375275
  C        15.6062431861       18.8858944295        3.9696613454
  C        16.8148341424       18.9052888564        4.6631136322
  C        17.8015052989       17.9261755347        4.4290036086
  C        17.5502280718       16.9492054606        3.4471173462
  C        16.3410871821       16.9251036898        2.7552923189
  C        19.0703496504       17.9078441599        5.1979522305
  C        19.0692028542       17.9038806689        6.6203971201
  C        17.8622755699       17.8049496088        7.3817687084
  C        46.8076080125       17.2206479747        2.1647410261
  C        45.5204953258       17.1661851302        2.9136985404
  C        45.3142666603       16.1949550577        3.9052237145
  C        44.1345977346       16.1864932134        4.6442991727
  C        43.1333296469       17.1492647866        4.4119856506
  C        43.3370838353       18.1003868643        3.3944348534
  C        44.5174127513       18.1130489877        2.6569237893
  C        41.8807881689       17.1686334029        5.1990005019
  C        41.8846568944       17.1717695575        6.6203157532
  C        43.0926266991       17.2648030861        7.3808208803
  C        20.3161023853       17.9141334245        7.3284902036
  C        20.2942407905       17.8886990130        4.5153520844
  C        46.7860004249       17.2316737899       13.8848498282
  C        45.4818268542       17.1297781235       13.1712483069
  C        45.2601453117       16.1370984043       12.2050115370
  C        44.0715225124       16.1182911456       11.4796049436
  C        43.0761448862       17.0890617019       11.7040726223
  C        43.2873274292       18.0500111719       12.7101219977
  C        44.4771146853       18.0755000454       13.4301378933
  C        41.8315548225       17.1221383831       10.9058126348
  C        41.8596628710       17.1463486791        9.4853600224
  C        43.0807684491       17.2500873168        8.7471928731
  C        46.1532764585       26.6371982886        8.7212391787
  C        46.1626251672       26.6561944683       11.5308639770
  C        14.0456363470       17.8316747629       13.7037375739
  C        15.3665837343       17.9057053048       13.0137188242
  C        15.6398151118       18.9197114872       12.0835340393
  C        16.8688494456       18.9561159213       11.4288162635
  C        17.8522826700       17.9777662606       11.6785271935
  C        17.5860741866       16.9931738369       12.6473629417
  C        16.3590285735       16.9560756471       13.3054744614
  C        19.1192898214       17.9512755307       10.9094533537
  C        19.0946512891       17.9246831128        9.4881137553
  C        17.8747599748       17.8142194256        8.7477487786
  C        28.8107762321       14.0932463735        2.3987532200
  C        28.1977669857       12.9176953388        3.0853253302
  C        28.9237320672       12.1713601608        4.0253067827
  C        28.3249659369       11.0957040742        4.6766498379
  C        26.9863713318       10.7423212560        4.4113589085
  C        26.2824117417       11.4684989024        3.4342353284
  C        26.8789691577       12.5444259287        2.7815607168
  C        26.3182368092        9.6615934593        5.1721954074
  C        26.3087451036        9.6861881261        6.5932222370
  C        26.8157385358       10.7974115162        7.3391597209
  C        32.1787431478       21.2417333086        2.1480614138
  C        32.7758437829       22.4074843027        2.8678142854
  C        32.0271088172       23.0914799135        3.8375283430
  C        32.5995540326       24.1288969012        4.5670804435
  C        33.9367737466       24.5109837954        4.3459977807
  C        34.6685069449       23.8460688368        3.3444262444
  C        34.0981190508       22.8025686989        2.6177147280
  C        34.5673160543       25.5851288483        5.1463385701
  C        34.5604309852       25.5549221103        6.5676357269
  C        34.0478907996       24.4407823302        7.3048945333
  C        25.6989555146        8.6085575640        7.3122553037
  C        25.6796144898        8.6121837892        4.4988114206
  C        32.1035226043       21.2255932572       13.8792088067
  C        32.6996584273       22.3724491707       13.1294170971
  C        31.9650133515       23.0375883690       12.1358115757
  C        32.5479941665       24.0659336659       11.3987461871
  C        33.8790758245       24.4598387947       11.6382926173
  C        34.5970962043       23.8073497954       12.6584786875
  C        34.0188972554       22.7730264005       13.3900964274
  C        34.5200393554       25.5416396877       10.8556854926
  C        34.5358125940       25.5331291775        9.4340627112
  C        34.0357064203       24.4309470148        8.6714521091
  C        40.6237372207       17.1535516566        8.7598289732
  C        40.5999380767       17.1474791012       11.5691964439
  C        28.7475576169       14.0657592667       13.8155206384
  C        28.1370744561       12.9178795869       13.0770860946
  C        28.8754935089       12.2211228177       12.1086636475
  C        28.2971550188       11.1638463171       11.4099274925
  C        26.9640950056       10.7771730531       11.6547886363
  C        26.2424769125       11.4619214485       12.6502751924
  C        26.8195911959       12.5197370401       13.3506825217
  C        26.3238917641        9.6858211367       10.8816958148
  C        26.3131591891        9.6984607128        9.4598685514
  C        26.8159059455       10.8045126588        8.7049822120
  C        18.1355179058        3.1811755536        2.3223005533
  C        17.4062826432        4.2783804417        3.0209202986
  C        16.3904708241        4.0000513699        3.9483539388
  C        15.7427756793        5.0400570404        4.6118164243
  C        16.0948295962        6.3837646326        4.3722218194
  C        17.0843570308        6.6532578585        3.4086022756
  C        17.7334266769        5.6158890957        2.7435734708
  C        15.4704777473        7.4914376081        5.1352653066
  C        15.4856038781        7.4906441722        6.5569757085
  C        16.1872181065        6.4970581597        7.3101324644
  C        42.9459596910       31.8596045214        2.0780431533
  C        43.6464121694       30.7719263750        2.8219667317
  C        44.5917379631       31.0932899144        3.8082144878
  C        45.1974667364       30.0877560077        4.5558877332
  C        44.8712590528       28.7346658492        4.3408612471
  C        43.9457044347       28.4202886126        3.3274073987
  C        43.3368724834       29.4254176297        2.5793647387
  C        45.4888073029       27.6553621050        5.1440634675
  C        45.4928302859       27.6809161210        6.5657583481
  C        44.8057684442       28.6889744808        7.3123917070
  C        14.8565826923        8.5630974048        7.2693423376
  C        14.8752753511        8.5632499935        4.4566778604
  C        42.9465378476       31.9616878870       13.8038840765
  C        43.6918792037       30.8855465580       13.0904896502
  C        44.6562225997       31.1914855342       12.1179589343
  C        45.2777761620       30.1719073331       11.4002428588
  C        44.9542702740       28.8215693668       11.6381234385
  C        44.0210612939       28.5238754627       12.6491545192
  C        43.3927807395       29.5406376353       13.3613207110
  C        45.5632337646       27.7241610053       10.8528406737
  C        45.5333562301       27.7173755882        9.4315447106
  C        44.8270536553       28.7076116332        8.6785766822
  C        35.1445886697       26.6244032421        8.7304425674
  C        35.1296968316       26.5998081208       11.5401320563
  C        18.1486418318        3.2471021861       13.7014474845
  C        17.4301295440        4.3438990825       12.9921438812
  C        16.4147890986        4.0526561321       12.0686988251
  C        15.7665055221        5.0833135257       11.3933483138
  C        16.1213373563        6.4285257680       11.6159829553
  C        17.1129401696        6.7118832958       12.5730085306
  C        17.7605984268        5.6829429901       13.2527449196
  C        15.4907854703        7.5242040260       10.8435692067
  C        15.4965984063        7.5075293002        9.4224420604
  C        16.1933940721        6.5058554265        8.6757366861
 Zr         9.2974194052       16.0526751754       14.1773990357
 Zr        49.8369222527       16.0065372148        1.7513939451
 Zr        22.0735480949        0.0305145992       14.1837183418
 Zr        42.4612064978       35.1540819018        1.8061906144
 Zr        29.5885525145       19.0840496151       14.2793023318
 Zr        29.5728291012       19.1668066576        1.8806541791
 Zr        11.0386302265       19.0517539787        1.8328661330
 Zr        11.0446167945       19.1546400668       14.2457671262
 Zr        31.3510483429       16.1068540703        1.8876875837
 Zr        31.3895314586       16.0069138197       14.2957997787
 Zr        18.6015708858       -0.0005090093        1.7683715935
 Zr        18.5068582432       -0.0070330437       14.2087381643
 Zr        12.3027366164       16.3235093776       15.9851549493
 Zr        48.6176028914       18.8332412293        0.0152498295
 Zr        20.3157200964        2.4743756735       15.9853252921
 Zr        40.6441539775       32.6878899820       15.9731739614
 Zr        28.3428901182       16.3353008736        0.0821321018
 Zr        32.6201319969       18.8315395143        0.0689146539
  H        10.6723143931       12.4653926345       11.8998728020
  H        11.6946144312       10.5505635109       10.6580392309
  H        15.3921440118       11.1694160883       12.7663683746
  H        14.3516796037       13.0721826063       14.0114971291
  H        13.3761363642       11.6311411041        9.1962680251
  H        50.3228510855       22.7482858820       11.9815426570
  H        49.3196826532       24.6227779721       10.6755254948
  H        45.6424919044       24.1615241151       12.8589749826
  H        46.6634762928       22.2905257923       14.1671910203
  H        47.6296253215       23.5757900936        9.2411969584
  H        14.8725369260        8.5885244870       12.6034727550
  H        50.2870442076       22.7023695498        4.0658149728
  H        49.2690624738       24.5752394905        5.3659134841
  H        45.6107996079       24.1096292546        3.1508489000
  H        46.6529746059       22.2542761786        1.8365643621
  H        47.6075394893       23.5517135851        6.8020474144
  H        40.6664780361       17.1481166904        3.4296033107
  H        10.6813169608       12.4663482463        4.0980650953
  H        11.6896841663       10.5244392778        5.3017784423
  H        15.3940485409       11.1597011166        3.2113651152
  H        14.3654842671       13.0880518604        1.9961070686
  H        13.3758499662       11.6221546376        6.7582569783
  H        24.4849313353        3.0257074258       11.9137888158
  H        25.6285447563        4.8832729879       10.6879006661
  H        23.2573436596        7.7533582037       12.8413895745
  H        22.1314848206        5.8862201080       14.0686672401
  H        23.8172477626        5.7885888430        9.2617273824
  H        36.3803973552       32.1821753290       11.9570811428
  H        35.2616342448       30.3535927294       10.6774191383
  H        37.5232096204       27.4367936167       12.8865756504
  H        38.6225975679       29.2782001220       14.1740517188
  H        37.0420171418       29.4396394659        9.2686953308
  H        25.7468279920        8.6063771597       12.6467171304
  H        36.4609248773       32.2396645649        4.1211032600
  H        35.3525747067       30.4194076446        5.4170805975
  H        37.5314063275       27.4867731749        3.1451288172
  H        38.6150917258       29.3188670371        1.8376562602
  H        37.0598815121       29.4605521585        6.8302640396
  H        46.1096806539       26.5877474190        3.3907751266
  H        24.4357132142        3.0385668234        4.0919614354
  H        25.5679495379        4.8770531868        5.3433175493
  H        23.1687141221        7.7674981327        3.2493386531
  H        22.0480373602        5.9171497254        1.9977514639
  H        23.7933183222        5.7905107451        6.8234682022
  H        25.8231671894       19.6398427360       11.9009381423
  H        23.6499349857       19.6877982973       10.6685196330
  H        22.3474501055       16.2190876461       12.8518861843
  H        24.5231446422       16.1892590962       14.0812476631
  H        23.7215147714       17.6582005173        9.2416971199
  H        35.1641048223       15.4512345806       11.9890246569
  H        37.2826919869       15.4306952108       10.6658327608
  H        38.6824934109       18.8418808163       12.8802073938
  H        36.5550550814       18.8474894892       14.1998928800
  H        37.2314440465       17.4287997808        9.2382955239
  H        20.3585944200       17.9778176977       12.6641813479
  H        35.2236532829       15.4551356947        4.0638833164
  H        37.3573482024       15.4164037195        5.3673018411
  H        38.7339637185       18.8626470899        3.1931784896
  H        36.5955963696       18.8818062643        1.8890919375
  H        37.2521080444       17.4297788490        6.7924729407
  H        35.1529231937       26.6818948425        3.3992944775
  H        25.7496515790       19.6302393969        4.1671143151
  H        23.5651356472       19.6820361829        5.3816375519
  H        22.2979382094       16.1776610852        3.2353018551
  H        24.4836864552       16.1471391524        2.0172193830
  H        23.6998832301       17.6443943892        6.8003532169
  H        14.8476986676       19.6445693893        4.1489459711
  H        17.0098186099       19.6879155489        5.3931753159
  H        18.3017102953       16.1855296799        3.2572982691
  H        16.1354760707       16.1575126234        2.0130138907
  H        16.9197206535       17.6889765642        6.8546984874
  H        46.0951350203       15.4607991875        4.0891904391
  H        43.9731295627       15.4260157395        5.4051030441
  H        42.5709561452       18.8511810976        3.2124916643
  H        44.6932093820       18.8611422951        1.8875628159
  H        44.0351329876       17.3788088389        6.8529175873
  H        20.2880105579       17.9196561468        3.4272525981
  H        46.0350160483       15.3957492449       12.0235114118
  H        43.9018180861       15.3491253636       10.7293003520
  H        42.5230427019       18.8031920708       12.8899170535
  H        44.6631283371       18.8370267431       14.1834070199
  H        44.0142464768       17.3515695691        9.2931242971
  H        46.1996942385       26.6828365697       12.6183004645
  H        14.8791189595       19.6728660408       11.8902457901
  H        17.0799256201       19.7451454606       10.7102239993
  H        18.3369913330       16.2317607167       12.8480609758
  H        16.1380322804       16.1828022316       14.0371644718
  H        16.9415007186       17.7054544567        9.2920682550
  H        29.9558596016       12.4483451097        4.2288958449
  H        28.8892485321       10.5152280541        5.4034132606
  H        25.2482871610       11.2050277880        3.2218130036
  H        26.3337891724       13.1262324286        2.0423434220
  H        27.1789341415       11.6654951578        6.7974973261
  H        30.9983755244       22.7846655406        4.0102386838
  H        32.0148548717       24.6595322278        5.3153215358
  H        35.7034436607       24.1324794547        3.1687004912
  H        34.6675903949       22.2628782764        1.8644509393
  H        33.6865997445       23.5746229452        6.7577039793
  H        25.7073935540        8.5942796665        3.4107218349
  H        30.9380792176       22.7309338484       11.9507322061
  H        31.9716478366       24.5845480416       10.6356665866
  H        35.6275772393       24.1004789677       12.8485597952
  H        34.5772237202       22.2470877829       14.1611310742
  H        33.6657181238       23.5568799222        9.1996889853
  H        40.5905724241       17.1028183363       12.6565714299
  H        29.9040648004       12.5226390976       11.9235332472
  H        28.8777281949       10.6186262104       10.6688260770
  H        25.2109227584       11.1762152405       12.8458489545
  H        26.2596639081       13.0644066458       14.1072746859
  H        27.1781354441       11.6779946080        9.2391874527
  H        16.1183256854        2.9635606011        4.1346856104
  H        14.9532542726        4.8207539077        5.3274185862
  H        17.3669926785        7.6861042963        3.2156280028
  H        18.5156161426        5.8185520595        2.0158918011
  H        16.7539357843        5.7398353891        6.7766368222
  H        44.8278649132       32.1403927056        3.9825071645
  H        45.9372008906       30.3415614441        5.3119448420
  H        43.6832872401       27.3781829490        3.1570879940
  H        42.6005083372       29.1900704539        1.8144616816
  H        44.2305097743       29.4368085437        6.7740793144
  H        14.8517281592        8.5466338590        3.3684506815
  H        44.8995970465       32.2341818220       11.9263645594
  H        46.0245427564       30.4131664945       10.6468768604
  H        43.7644355489       27.4841138134       12.8409944569
  H        42.6465696000       29.3178558951       14.1200522373
  H        44.2686235360       29.4705611604        9.2131524768
  H        35.0865094357       26.6119823725       12.6275776278
  H        16.1435954814        3.0130953844       11.8990765912
  H        14.9740905056        4.8565553915       10.6833396585
  H        17.3967119008        7.7473138356       12.7496965349
  H        18.5437114111        5.8934064660       13.9772492218
  H        16.7649847958        5.7557316296        9.2141705728
  O        10.6499572360       14.3651006025       13.4806935361
  O        12.6131817391       14.6574871038       14.5787679789
  O        49.1481704662       16.8458204606       15.9845870900
  O        50.3503391346       20.9358170782       13.6428962185
  O        48.3485994823       20.5934127139       14.6607797651
  O        11.0517986890       17.0537802118       14.4956289993
  O        50.3210753318       20.8816987579        2.4119841180
  O        48.3467752683       20.5868510560        1.3322677843
  O        49.5439052411       18.2484118214        2.0733480000
  O        12.3593421362       18.6246661922        0.0048022396
  O        48.6932452735       14.1485880071       14.7461887083
  O         8.2099167037       14.2103477400        1.3276276530
  O        10.7353985598       14.5067231229        2.6694180550
  O        12.5718246871       14.5828050455        1.3336030888
  O        22.8444273035        2.0425787904       13.4822596995
  O        21.6057266842        3.5922611772       14.5843406610
  O        42.0584059359       34.1376044757       15.9739018831
  O        37.9817969484       33.1373295233       13.5672517432
  O        39.2185654139       31.5762375618       14.6619728483
  O        20.3084464209        1.0396867123       14.4970852421
  O        38.0246896831       33.1858251535        2.4203304674
  O        39.2194136960       31.5839825380        1.3312818975
  O        40.6523356059       33.7694878450        2.0653174803
  O        18.2556002054        1.3767782099        0.0018483130
  O        44.6222490658       35.1005292683       14.7536652739
  O        24.2054444437       -0.0000068220        1.3258751367
  O        22.7529554356        2.0575269206        2.5888491020
  O        21.6244859053        3.5960428013        1.3478800454
  O        27.4912600377       18.7510423784       13.4946568717
  O        26.7626135817       16.9288260631       14.6485165195
  O        30.6371168534       19.3561462500        0.0820569278
  O        33.5921789829       16.2737945327       13.6655595671
  O        34.2747212802       18.1693845993       14.7325908651
  O        29.5731561499       17.0587274469       14.5711171343
  O        33.6225027022       16.3290898630        2.4172268698
  O        34.3056113954       18.2477808503        1.4116206699
  O        31.6526874822       18.3186260999        2.1617436450
  O        30.3188215750       15.1523741309        0.0949786841
  O        28.5540329013       21.0303447951       14.8982644356
  O        28.5128403589       20.9543807029        1.4174531150
  O        27.4591976661       18.6749387877        2.6707345847
  O        26.6921581493       16.9273564618        1.4224664469
  O        13.1486540961       18.6929143914        2.5925073135
  O        13.9191642763       16.9161797084        1.4100386391
  O        50.5966286430       19.3503369756        0.0255056291
  O        47.6838436127       16.3269445521        2.4223126918
  O        46.9528777510       18.1761629747        1.3288708355
  O        11.0699611487       17.0154509723        1.4947194185
  O        47.6756599583       16.3356469390       13.6477357255
  O        46.9285566294       18.2359465854       14.6602566474
  O        49.5689679837       18.3177088301       13.9771632857
  O        10.3187132929       15.1000720720        0.0021933302
  O        52.6707871513       21.0279057679        1.2469266470
  O        12.1468549840       20.8912528892       14.6681496450
  O        13.1081195696       18.6136094788       13.3205722036
  O        13.9570790779       16.9869777243       14.6604048668
  O        29.9938705656       14.4437849052        2.7399753302
  O        28.0894433503       14.6530362801        1.5020552772
  O        32.1408738228       16.8499836819        0.0954896651
  O        30.9655641043       20.9541354334        2.4142862470
  O        32.9456344283       20.6043632594        1.3430192065
  O        29.5669553271       17.0738852636        1.5844451143
  O        30.8726240011       20.9489024997       13.6594831449
  O        32.8772740845       20.5861020717       14.6641217119
  O        31.6881469142       18.2546616419       14.0570698015
  O        28.2582555409       18.6330540832        0.0863493326
  O        32.4932508216       14.2130709752        1.3377382907
  O        32.4071374437       14.2116205682       14.8203386107
  O        29.9185149360       14.4355123698       13.4879792294
  O        28.0380511635       14.5877076275       14.7479928897
  O        17.8892551130        1.9667280771        2.6679239413
  O        18.9562657765        3.5271957889        1.4130687844
  O        39.1686185021       34.1389293952        0.0023068420
  O        43.2802580867       33.0589882108        2.3368204829
  O        42.0346045024       31.5064455517        1.2467406900
  O        20.3178002512        1.0369531874        1.4851389436
  O        43.2760960653       33.1826102570       13.5697830096
  O        42.0052931744       31.5841491161       14.5778657490
  O        40.5790671399       33.7751611491       13.9307920278
  O        22.3674334561        1.3847168172        0.0030462394
  O        36.6728119555       35.0998046405        1.2383801810
  O        16.4456355825        0.0642804560       14.6631639520
  O        17.9365152040        2.0433969741       13.3212753667
  O        18.9190653657        3.5931628263       14.6607948138
  O        39.4568433722       35.2438215320       11.9968443585
  O        19.1415941670        0.0046236734        3.9955949334
  O        41.9694515658       35.1725858833       12.0819774559
  O        21.6911596096       -0.0695366919        3.9011262324
  O        51.3651569584       18.6142591560       12.0002463301
  O        10.7511083978       18.7471792266        3.9100686584
  O        50.0792549637       16.4127804898       12.0866646973
  O         9.5245136730       16.4830571988        3.9963165178
  H        48.6870820128       14.0950182398       15.7949352603
  H        47.9302381856       14.2183479291        1.7159807054
  H        47.7800773278       14.3737599778       14.4901164370
  H        49.0847134470       18.5528195224        2.8727575792
  H        10.4162757395       14.1342432236        0.0037701830
  H        44.6683984248       35.1162870097       15.8088307105
  H        44.9540546673       34.3905241375        1.7003529185
  H        44.9019564318       34.2068204407       14.4856345693
  H        40.6664649798       33.2095662326        2.8584503344
  H        23.1504116188        1.9581676993        0.0104289512
  H        28.5022375852       21.0722092241       15.9676834386
  H        29.0234609571       21.7101727057        1.7544131118
  H        29.1801410149       21.7268412514       14.6291601408
  H        32.1172380547       18.5399359620        2.9847860569
  H        27.3689587725       19.0218343543        0.0865080256
  H        52.7412678320       21.0626100700        0.1997967087
  H        52.3224038605       21.6732962261       14.2891918604
  H        52.0131176519       21.7019761597        1.5006551664
  H        49.0679787299       18.6077795962       13.1988739915
  H        13.2480279683       19.0159483822       15.9722840116
  H        32.5086499527       14.1454331590        0.2641899865
  H        33.3107369528       14.2282082659       14.4628411373
  H        33.4097362300       14.4131366459        1.6041864047
  H        32.1472137870       18.5334854326       13.2495783609
  H        30.2135512985       14.1871565096        0.0836380096
  H        36.6053162455       35.1341297845        0.1857247400
  H        36.2790187767       34.4822700902       14.2680308749
  H        36.3816797674       34.2088994543        1.5045468971
  H        40.5808674607       33.2031591697       13.1481916203
  H        17.4710291848        1.9480968584       15.9690519612
  H        18.8538244841        0.8691453575        4.3403264414
  H        40.5281463245       35.2288616493       11.9468252287
  H        42.3247288566       34.4195387324       11.5847592673
  H        22.0875068688        0.6918431355        4.3569336852
  H        11.5968860345       18.7128754066        4.3876648497
  H        52.2649917447       18.4309730978       11.6721892881
  H        49.2547045344       16.4769201620       11.5796115851
  H        10.1504287344       15.7982165677        4.2977959166
  H        50.8500591987       17.6925235983       11.9490676591
  H        10.0462404928       17.3945150735        4.0570292815
  H        20.2151817507        0.0022070979        4.0470106102
  H        39.1839306792       36.1245941499       11.6814621002
 Ni        30.9038282876       17.7394362844       10.9047915133
 Ni        31.2801948529       16.3550731337        7.9174606146
 Ni        30.0554043093       18.9627851503        8.1566227484
 Ni        30.2667549748       17.5235141464        5.3290931480
  O        29.8640936031       18.8959350692       12.1580597943
  O        29.7749293858       19.0509112167        4.0839438808
  O        31.3458127125       16.3373643258       12.1566144756
  O        31.3462881395       16.4805352388        4.0030387743
  O        32.2365728138       16.5615077291        9.5731003351
  O        29.8278609048       17.2153335798        9.1667778095
  O        30.4576935617       15.6840726187        6.3367228622
  O        31.4368385061       18.0929661546        6.9118913801
  O        30.8893300847       19.4979107448        9.8189960851
  O        28.8913032959       18.3970390847        6.5865294868
  O        30.4158338962       20.7349493369        6.9095704622
  H        28.8768678310       19.1726523746        4.4526821168
  H        29.9093647727       19.7166839351       11.6323196096
  H        31.8575408908       15.7284212246       11.5925434386
  H        31.3019929494       15.6528373756        4.5250974686
  H        28.1878629894       17.7797873961        6.8410102682
  H        29.6776452090       15.1151154311        6.4314566942
  H        31.7025157146       20.0219841708        9.7516432249
  H        33.1837405835       16.7686062046        9.5438513558
  H        28.9498245077       16.8046760826        9.2309688236
  H        32.3232051455       18.4828348173        6.8295668491
  H        30.2729789783       20.3420482815        6.0162814269
  H        29.7125391968       21.4004150934        6.9963098773
